version 2
run Default-0-20211024-22:43:04-2247
attr configname Default
attr datetime 20211024-22:43:04
attr experiment Default
attr inifile omnetpp.ini
attr iterationvars ""
attr iterationvarsf ""
attr measurement ""
attr network RSUExampleScenario
attr processid 2247
attr repetition 0
attr replication #0
attr resultdir results
attr runnumber 0
attr seedset 0
param *.playgroundSizeX 2500m
param *.playgroundSizeY 2500m
param *.playgroundSizeZ 50m
param *.annotations.draw true
param *.obstacles.obstacles "xmldoc(\"config.xml\", \"//AnalogueModel[@type='SimpleObstacleShadowing']/obstacles\")"
param *.manager.updateInterval 1s
param *.manager.host "\"localhost\""
param *.manager.port 9999
param *.manager.autoShutdown true
param *.manager.launchConfig "xmldoc(\"erlangen.launchd.xml\")"
param *.rsu[0].mobility.x 2000
param *.rsu[0].mobility.y 2000
param *.rsu[0].mobility.z 3
param *.rsu[*].applType "\"TraCIDemoRSU11p\""
param *.rsu[*].appl.headerLength "80 bit"
param *.rsu[*].appl.sendBeacons false
param *.rsu[*].appl.dataOnSch false
param *.rsu[*].appl.beaconInterval 1s
param *.rsu[*].appl.beaconUserPriority 7
param *.rsu[*].appl.dataUserPriority 5
param *.rsu[*].nic.phy80211p.antennaOffsetZ "0 m"
param *.connectionManager.sendDirect true
param *.connectionManager.maxInterfDist 2600m
param *.connectionManager.drawMaxIntfDist false
param *.**.nic.mac1609_4.useServiceChannel false
param *.**.nic.mac1609_4.txPower 20mW
param *.**.nic.mac1609_4.bitrate 6Mbps
param *.**.nic.phy80211p.minPowerLevel -110dBm
param *.**.nic.phy80211p.useNoiseFloor true
param *.**.nic.phy80211p.noiseFloor -98dBm
param *.**.nic.phy80211p.decider "xmldoc(\"config.xml\")"
param *.**.nic.phy80211p.analogueModels "xmldoc(\"config.xml\")"
param *.**.nic.phy80211p.usePropagationDelay true
param *.**.nic.phy80211p.antenna "xmldoc(\"antenna.xml\", \"/root/Antenna[@id='monopole']\")"
param *.node[*].nic.phy80211p.antennaOffsetY "0 m"
param *.node[*].nic.phy80211p.antennaOffsetZ "1.895 m"
param *.node[*].applType "\"TraCIDemo11p\""
param *.node[*].appl.headerLength "80 bit"
param *.node[*].appl.sendBeacons false
param *.node[*].appl.dataOnSch false
param *.node[*].appl.beaconInterval 1s
param *.node[*].veinsmobility.x 0
param *.node[*].veinsmobility.y 0
param *.node[*].veinsmobility.z 0
param *.node[*].veinsmobility.setHostSpeed false
param *.node[*0].veinsmobility.accidentCount 1
param *.node[*0].veinsmobility.accidentStart 73s
param *.node[*0].veinsmobility.accidentDuration 50s

vector 0 RSUExampleScenario.node[0].veinsmobility posx ETV
vector 1 RSUExampleScenario.node[0].veinsmobility posy ETV
vector 2 RSUExampleScenario.node[0].veinsmobility speed ETV
vector 3 RSUExampleScenario.node[0].veinsmobility acceleration ETV
vector 4 RSUExampleScenario.node[0].veinsmobility co2emission ETV
vector 5 RSUExampleScenario.node[1].veinsmobility posx ETV
vector 6 RSUExampleScenario.node[1].veinsmobility posy ETV
vector 7 RSUExampleScenario.node[1].veinsmobility speed ETV
vector 8 RSUExampleScenario.node[1].veinsmobility acceleration ETV
vector 9 RSUExampleScenario.node[1].veinsmobility co2emission ETV
vector 10 RSUExampleScenario.node[2].veinsmobility posx ETV
vector 11 RSUExampleScenario.node[2].veinsmobility posy ETV
vector 12 RSUExampleScenario.node[2].veinsmobility speed ETV
vector 13 RSUExampleScenario.node[2].veinsmobility acceleration ETV
vector 14 RSUExampleScenario.node[2].veinsmobility co2emission ETV
vector 15 RSUExampleScenario.node[3].veinsmobility posx ETV
vector 16 RSUExampleScenario.node[3].veinsmobility posy ETV
vector 17 RSUExampleScenario.node[3].veinsmobility speed ETV
vector 18 RSUExampleScenario.node[3].veinsmobility acceleration ETV
vector 19 RSUExampleScenario.node[3].veinsmobility co2emission ETV
vector 20 RSUExampleScenario.node[4].veinsmobility posx ETV
vector 21 RSUExampleScenario.node[4].veinsmobility posy ETV
vector 22 RSUExampleScenario.node[4].veinsmobility speed ETV
vector 23 RSUExampleScenario.node[4].veinsmobility acceleration ETV
vector 24 RSUExampleScenario.node[4].veinsmobility co2emission ETV
vector 25 RSUExampleScenario.node[5].veinsmobility posx ETV
vector 26 RSUExampleScenario.node[5].veinsmobility posy ETV
vector 27 RSUExampleScenario.node[5].veinsmobility speed ETV
vector 28 RSUExampleScenario.node[5].veinsmobility acceleration ETV
vector 29 RSUExampleScenario.node[5].veinsmobility co2emission ETV
vector 30 RSUExampleScenario.node[6].veinsmobility posx ETV
vector 31 RSUExampleScenario.node[6].veinsmobility posy ETV
vector 32 RSUExampleScenario.node[6].veinsmobility speed ETV
vector 33 RSUExampleScenario.node[6].veinsmobility acceleration ETV
vector 34 RSUExampleScenario.node[6].veinsmobility co2emission ETV
vector 35 RSUExampleScenario.node[7].veinsmobility posx ETV
vector 36 RSUExampleScenario.node[7].veinsmobility posy ETV
vector 37 RSUExampleScenario.node[7].veinsmobility speed ETV
vector 38 RSUExampleScenario.node[7].veinsmobility acceleration ETV
vector 39 RSUExampleScenario.node[7].veinsmobility co2emission ETV
vector 40 RSUExampleScenario.node[8].veinsmobility posx ETV
vector 41 RSUExampleScenario.node[8].veinsmobility posy ETV
vector 42 RSUExampleScenario.node[8].veinsmobility speed ETV
vector 43 RSUExampleScenario.node[8].veinsmobility acceleration ETV
vector 44 RSUExampleScenario.node[8].veinsmobility co2emission ETV
vector 45 RSUExampleScenario.node[9].veinsmobility posx ETV
vector 46 RSUExampleScenario.node[9].veinsmobility posy ETV
vector 47 RSUExampleScenario.node[9].veinsmobility speed ETV
vector 48 RSUExampleScenario.node[9].veinsmobility acceleration ETV
vector 49 RSUExampleScenario.node[9].veinsmobility co2emission ETV
vector 50 RSUExampleScenario.node[10].veinsmobility posx ETV
vector 51 RSUExampleScenario.node[10].veinsmobility posy ETV
vector 52 RSUExampleScenario.node[10].veinsmobility speed ETV
vector 53 RSUExampleScenario.node[10].veinsmobility acceleration ETV
vector 54 RSUExampleScenario.node[10].veinsmobility co2emission ETV
vector 55 RSUExampleScenario.node[11].veinsmobility posx ETV
vector 56 RSUExampleScenario.node[11].veinsmobility posy ETV
vector 57 RSUExampleScenario.node[11].veinsmobility speed ETV
vector 58 RSUExampleScenario.node[11].veinsmobility acceleration ETV
vector 59 RSUExampleScenario.node[11].veinsmobility co2emission ETV
vector 60 RSUExampleScenario.node[12].veinsmobility posx ETV
vector 61 RSUExampleScenario.node[12].veinsmobility posy ETV
vector 62 RSUExampleScenario.node[12].veinsmobility speed ETV
vector 63 RSUExampleScenario.node[12].veinsmobility acceleration ETV
vector 64 RSUExampleScenario.node[12].veinsmobility co2emission ETV
vector 65 RSUExampleScenario.node[13].veinsmobility posx ETV
vector 66 RSUExampleScenario.node[13].veinsmobility posy ETV
vector 67 RSUExampleScenario.node[13].veinsmobility speed ETV
vector 68 RSUExampleScenario.node[13].veinsmobility acceleration ETV
vector 69 RSUExampleScenario.node[13].veinsmobility co2emission ETV
vector 70 RSUExampleScenario.node[14].veinsmobility posx ETV
vector 71 RSUExampleScenario.node[14].veinsmobility posy ETV
vector 72 RSUExampleScenario.node[14].veinsmobility speed ETV
vector 73 RSUExampleScenario.node[14].veinsmobility acceleration ETV
vector 74 RSUExampleScenario.node[14].veinsmobility co2emission ETV
vector 75 RSUExampleScenario.node[15].veinsmobility posx ETV
vector 76 RSUExampleScenario.node[15].veinsmobility posy ETV
vector 77 RSUExampleScenario.node[15].veinsmobility speed ETV
vector 78 RSUExampleScenario.node[15].veinsmobility acceleration ETV
vector 79 RSUExampleScenario.node[15].veinsmobility co2emission ETV
vector 80 RSUExampleScenario.node[16].veinsmobility posx ETV
vector 81 RSUExampleScenario.node[16].veinsmobility posy ETV
vector 82 RSUExampleScenario.node[16].veinsmobility speed ETV
vector 83 RSUExampleScenario.node[16].veinsmobility acceleration ETV
vector 84 RSUExampleScenario.node[16].veinsmobility co2emission ETV
vector 85 RSUExampleScenario.node[17].veinsmobility posx ETV
vector 86 RSUExampleScenario.node[17].veinsmobility posy ETV
vector 87 RSUExampleScenario.node[17].veinsmobility speed ETV
vector 88 RSUExampleScenario.node[17].veinsmobility acceleration ETV
vector 89 RSUExampleScenario.node[17].veinsmobility co2emission ETV
vector 90 RSUExampleScenario.node[18].veinsmobility posx ETV
vector 91 RSUExampleScenario.node[18].veinsmobility posy ETV
vector 92 RSUExampleScenario.node[18].veinsmobility speed ETV
vector 93 RSUExampleScenario.node[18].veinsmobility acceleration ETV
vector 94 RSUExampleScenario.node[18].veinsmobility co2emission ETV
vector 95 RSUExampleScenario.node[19].veinsmobility posx ETV
vector 96 RSUExampleScenario.node[19].veinsmobility posy ETV
vector 97 RSUExampleScenario.node[19].veinsmobility speed ETV
vector 98 RSUExampleScenario.node[19].veinsmobility acceleration ETV
vector 99 RSUExampleScenario.node[19].veinsmobility co2emission ETV
vector 100 RSUExampleScenario.node[20].veinsmobility posx ETV
vector 101 RSUExampleScenario.node[20].veinsmobility posy ETV
vector 102 RSUExampleScenario.node[20].veinsmobility speed ETV
vector 103 RSUExampleScenario.node[20].veinsmobility acceleration ETV
vector 104 RSUExampleScenario.node[20].veinsmobility co2emission ETV
vector 105 RSUExampleScenario.node[21].veinsmobility posx ETV
vector 106 RSUExampleScenario.node[21].veinsmobility posy ETV
vector 107 RSUExampleScenario.node[21].veinsmobility speed ETV
vector 108 RSUExampleScenario.node[21].veinsmobility acceleration ETV
vector 109 RSUExampleScenario.node[21].veinsmobility co2emission ETV
vector 110 RSUExampleScenario.node[22].veinsmobility posx ETV
vector 111 RSUExampleScenario.node[22].veinsmobility posy ETV
vector 112 RSUExampleScenario.node[22].veinsmobility speed ETV
vector 113 RSUExampleScenario.node[22].veinsmobility acceleration ETV
vector 114 RSUExampleScenario.node[22].veinsmobility co2emission ETV
vector 115 RSUExampleScenario.node[23].veinsmobility posx ETV
vector 116 RSUExampleScenario.node[23].veinsmobility posy ETV
vector 117 RSUExampleScenario.node[23].veinsmobility speed ETV
vector 118 RSUExampleScenario.node[23].veinsmobility acceleration ETV
vector 119 RSUExampleScenario.node[23].veinsmobility co2emission ETV
vector 120 RSUExampleScenario.node[24].veinsmobility posx ETV
vector 121 RSUExampleScenario.node[24].veinsmobility posy ETV
vector 122 RSUExampleScenario.node[24].veinsmobility speed ETV
vector 123 RSUExampleScenario.node[24].veinsmobility acceleration ETV
vector 124 RSUExampleScenario.node[24].veinsmobility co2emission ETV
vector 125 RSUExampleScenario.node[25].veinsmobility posx ETV
vector 126 RSUExampleScenario.node[25].veinsmobility posy ETV
vector 127 RSUExampleScenario.node[25].veinsmobility speed ETV
vector 128 RSUExampleScenario.node[25].veinsmobility acceleration ETV
vector 129 RSUExampleScenario.node[25].veinsmobility co2emission ETV
vector 130 RSUExampleScenario.node[26].veinsmobility posx ETV
vector 131 RSUExampleScenario.node[26].veinsmobility posy ETV
vector 132 RSUExampleScenario.node[26].veinsmobility speed ETV
vector 133 RSUExampleScenario.node[26].veinsmobility acceleration ETV
vector 134 RSUExampleScenario.node[26].veinsmobility co2emission ETV
vector 135 RSUExampleScenario.node[27].veinsmobility posx ETV
vector 136 RSUExampleScenario.node[27].veinsmobility posy ETV
vector 137 RSUExampleScenario.node[27].veinsmobility speed ETV
vector 138 RSUExampleScenario.node[27].veinsmobility acceleration ETV
vector 139 RSUExampleScenario.node[27].veinsmobility co2emission ETV
vector 140 RSUExampleScenario.node[28].veinsmobility posx ETV
vector 141 RSUExampleScenario.node[28].veinsmobility posy ETV
vector 142 RSUExampleScenario.node[28].veinsmobility speed ETV
vector 143 RSUExampleScenario.node[28].veinsmobility acceleration ETV
vector 144 RSUExampleScenario.node[28].veinsmobility co2emission ETV
vector 145 RSUExampleScenario.node[29].veinsmobility posx ETV
vector 146 RSUExampleScenario.node[29].veinsmobility posy ETV
vector 147 RSUExampleScenario.node[29].veinsmobility speed ETV
vector 148 RSUExampleScenario.node[29].veinsmobility acceleration ETV
vector 149 RSUExampleScenario.node[29].veinsmobility co2emission ETV
vector 150 RSUExampleScenario.node[30].veinsmobility posx ETV
vector 151 RSUExampleScenario.node[30].veinsmobility posy ETV
vector 152 RSUExampleScenario.node[30].veinsmobility speed ETV
vector 153 RSUExampleScenario.node[30].veinsmobility acceleration ETV
vector 154 RSUExampleScenario.node[30].veinsmobility co2emission ETV
vector 155 RSUExampleScenario.node[31].veinsmobility posx ETV
vector 156 RSUExampleScenario.node[31].veinsmobility posy ETV
vector 157 RSUExampleScenario.node[31].veinsmobility speed ETV
vector 158 RSUExampleScenario.node[31].veinsmobility acceleration ETV
vector 159 RSUExampleScenario.node[31].veinsmobility co2emission ETV
vector 160 RSUExampleScenario.node[32].veinsmobility posx ETV
vector 161 RSUExampleScenario.node[32].veinsmobility posy ETV
vector 162 RSUExampleScenario.node[32].veinsmobility speed ETV
vector 163 RSUExampleScenario.node[32].veinsmobility acceleration ETV
vector 164 RSUExampleScenario.node[32].veinsmobility co2emission ETV
vector 165 RSUExampleScenario.node[33].veinsmobility posx ETV
vector 166 RSUExampleScenario.node[33].veinsmobility posy ETV
vector 167 RSUExampleScenario.node[33].veinsmobility speed ETV
vector 168 RSUExampleScenario.node[33].veinsmobility acceleration ETV
vector 169 RSUExampleScenario.node[33].veinsmobility co2emission ETV
vector 170 RSUExampleScenario.node[34].veinsmobility posx ETV
vector 171 RSUExampleScenario.node[34].veinsmobility posy ETV
vector 172 RSUExampleScenario.node[34].veinsmobility speed ETV
vector 173 RSUExampleScenario.node[34].veinsmobility acceleration ETV
vector 174 RSUExampleScenario.node[34].veinsmobility co2emission ETV
vector 175 RSUExampleScenario.node[35].veinsmobility posx ETV
vector 176 RSUExampleScenario.node[35].veinsmobility posy ETV
vector 177 RSUExampleScenario.node[35].veinsmobility speed ETV
vector 178 RSUExampleScenario.node[35].veinsmobility acceleration ETV
vector 179 RSUExampleScenario.node[35].veinsmobility co2emission ETV
vector 180 RSUExampleScenario.node[36].veinsmobility posx ETV
vector 181 RSUExampleScenario.node[36].veinsmobility posy ETV
vector 182 RSUExampleScenario.node[36].veinsmobility speed ETV
vector 183 RSUExampleScenario.node[36].veinsmobility acceleration ETV
vector 184 RSUExampleScenario.node[36].veinsmobility co2emission ETV
vector 185 RSUExampleScenario.node[37].veinsmobility posx ETV
vector 186 RSUExampleScenario.node[37].veinsmobility posy ETV
vector 187 RSUExampleScenario.node[37].veinsmobility speed ETV
vector 188 RSUExampleScenario.node[37].veinsmobility acceleration ETV
vector 189 RSUExampleScenario.node[37].veinsmobility co2emission ETV
vector 190 RSUExampleScenario.node[38].veinsmobility posx ETV
vector 191 RSUExampleScenario.node[38].veinsmobility posy ETV
vector 192 RSUExampleScenario.node[38].veinsmobility speed ETV
vector 193 RSUExampleScenario.node[38].veinsmobility acceleration ETV
vector 194 RSUExampleScenario.node[38].veinsmobility co2emission ETV
vector 195 RSUExampleScenario.node[39].veinsmobility posx ETV
vector 196 RSUExampleScenario.node[39].veinsmobility posy ETV
vector 197 RSUExampleScenario.node[39].veinsmobility speed ETV
vector 198 RSUExampleScenario.node[39].veinsmobility acceleration ETV
vector 199 RSUExampleScenario.node[39].veinsmobility co2emission ETV
vector 200 RSUExampleScenario.node[40].veinsmobility posx ETV
vector 201 RSUExampleScenario.node[40].veinsmobility posy ETV
vector 202 RSUExampleScenario.node[40].veinsmobility speed ETV
vector 203 RSUExampleScenario.node[40].veinsmobility acceleration ETV
vector 204 RSUExampleScenario.node[40].veinsmobility co2emission ETV
vector 205 RSUExampleScenario.node[41].veinsmobility posx ETV
vector 206 RSUExampleScenario.node[41].veinsmobility posy ETV
vector 207 RSUExampleScenario.node[41].veinsmobility speed ETV
vector 208 RSUExampleScenario.node[41].veinsmobility acceleration ETV
vector 209 RSUExampleScenario.node[41].veinsmobility co2emission ETV
vector 210 RSUExampleScenario.node[42].veinsmobility posx ETV
vector 211 RSUExampleScenario.node[42].veinsmobility posy ETV
vector 212 RSUExampleScenario.node[42].veinsmobility speed ETV
vector 213 RSUExampleScenario.node[42].veinsmobility acceleration ETV
vector 214 RSUExampleScenario.node[42].veinsmobility co2emission ETV
vector 215 RSUExampleScenario.node[43].veinsmobility posx ETV
vector 216 RSUExampleScenario.node[43].veinsmobility posy ETV
vector 217 RSUExampleScenario.node[43].veinsmobility speed ETV
vector 218 RSUExampleScenario.node[43].veinsmobility acceleration ETV
vector 219 RSUExampleScenario.node[43].veinsmobility co2emission ETV
vector 220 RSUExampleScenario.node[44].veinsmobility posx ETV
vector 221 RSUExampleScenario.node[44].veinsmobility posy ETV
vector 222 RSUExampleScenario.node[44].veinsmobility speed ETV
vector 223 RSUExampleScenario.node[44].veinsmobility acceleration ETV
vector 224 RSUExampleScenario.node[44].veinsmobility co2emission ETV
vector 225 RSUExampleScenario.node[45].veinsmobility posx ETV
vector 226 RSUExampleScenario.node[45].veinsmobility posy ETV
vector 227 RSUExampleScenario.node[45].veinsmobility speed ETV
vector 228 RSUExampleScenario.node[45].veinsmobility acceleration ETV
vector 229 RSUExampleScenario.node[45].veinsmobility co2emission ETV
vector 230 RSUExampleScenario.node[46].veinsmobility posx ETV
vector 231 RSUExampleScenario.node[46].veinsmobility posy ETV
vector 232 RSUExampleScenario.node[46].veinsmobility speed ETV
vector 233 RSUExampleScenario.node[46].veinsmobility acceleration ETV
vector 234 RSUExampleScenario.node[46].veinsmobility co2emission ETV
vector 235 RSUExampleScenario.node[47].veinsmobility posx ETV
vector 236 RSUExampleScenario.node[47].veinsmobility posy ETV
vector 237 RSUExampleScenario.node[47].veinsmobility speed ETV
vector 238 RSUExampleScenario.node[47].veinsmobility acceleration ETV
vector 239 RSUExampleScenario.node[47].veinsmobility co2emission ETV
vector 240 RSUExampleScenario.node[48].veinsmobility posx ETV
vector 241 RSUExampleScenario.node[48].veinsmobility posy ETV
vector 242 RSUExampleScenario.node[48].veinsmobility speed ETV
vector 243 RSUExampleScenario.node[48].veinsmobility acceleration ETV
vector 244 RSUExampleScenario.node[48].veinsmobility co2emission ETV
vector 245 RSUExampleScenario.node[49].veinsmobility posx ETV
vector 246 RSUExampleScenario.node[49].veinsmobility posy ETV
vector 247 RSUExampleScenario.node[49].veinsmobility speed ETV
vector 248 RSUExampleScenario.node[49].veinsmobility acceleration ETV
vector 249 RSUExampleScenario.node[49].veinsmobility co2emission ETV
vector 250 RSUExampleScenario.node[50].veinsmobility posx ETV
vector 251 RSUExampleScenario.node[50].veinsmobility posy ETV
vector 252 RSUExampleScenario.node[50].veinsmobility speed ETV
vector 253 RSUExampleScenario.node[50].veinsmobility acceleration ETV
vector 254 RSUExampleScenario.node[50].veinsmobility co2emission ETV
vector 255 RSUExampleScenario.node[51].veinsmobility posx ETV
vector 256 RSUExampleScenario.node[51].veinsmobility posy ETV
vector 257 RSUExampleScenario.node[51].veinsmobility speed ETV
vector 258 RSUExampleScenario.node[51].veinsmobility acceleration ETV
vector 259 RSUExampleScenario.node[51].veinsmobility co2emission ETV
vector 260 RSUExampleScenario.node[52].veinsmobility posx ETV
vector 261 RSUExampleScenario.node[52].veinsmobility posy ETV
vector 262 RSUExampleScenario.node[52].veinsmobility speed ETV
vector 263 RSUExampleScenario.node[52].veinsmobility acceleration ETV
vector 264 RSUExampleScenario.node[52].veinsmobility co2emission ETV
vector 265 RSUExampleScenario.node[53].veinsmobility posx ETV
vector 266 RSUExampleScenario.node[53].veinsmobility posy ETV
vector 267 RSUExampleScenario.node[53].veinsmobility speed ETV
vector 268 RSUExampleScenario.node[53].veinsmobility acceleration ETV
vector 269 RSUExampleScenario.node[53].veinsmobility co2emission ETV
vector 270 RSUExampleScenario.node[54].veinsmobility posx ETV
vector 271 RSUExampleScenario.node[54].veinsmobility posy ETV
vector 272 RSUExampleScenario.node[54].veinsmobility speed ETV
vector 273 RSUExampleScenario.node[54].veinsmobility acceleration ETV
vector 274 RSUExampleScenario.node[54].veinsmobility co2emission ETV
vector 275 RSUExampleScenario.node[55].veinsmobility posx ETV
vector 276 RSUExampleScenario.node[55].veinsmobility posy ETV
vector 277 RSUExampleScenario.node[55].veinsmobility speed ETV
vector 278 RSUExampleScenario.node[55].veinsmobility acceleration ETV
vector 279 RSUExampleScenario.node[55].veinsmobility co2emission ETV
vector 280 RSUExampleScenario.node[56].veinsmobility posx ETV
vector 281 RSUExampleScenario.node[56].veinsmobility posy ETV
vector 282 RSUExampleScenario.node[56].veinsmobility speed ETV
vector 283 RSUExampleScenario.node[56].veinsmobility acceleration ETV
vector 284 RSUExampleScenario.node[56].veinsmobility co2emission ETV
vector 285 RSUExampleScenario.node[57].veinsmobility posx ETV
vector 286 RSUExampleScenario.node[57].veinsmobility posy ETV
vector 287 RSUExampleScenario.node[57].veinsmobility speed ETV
vector 288 RSUExampleScenario.node[57].veinsmobility acceleration ETV
vector 289 RSUExampleScenario.node[57].veinsmobility co2emission ETV
vector 290 RSUExampleScenario.node[58].veinsmobility posx ETV
vector 291 RSUExampleScenario.node[58].veinsmobility posy ETV
vector 292 RSUExampleScenario.node[58].veinsmobility speed ETV
vector 293 RSUExampleScenario.node[58].veinsmobility acceleration ETV
vector 294 RSUExampleScenario.node[58].veinsmobility co2emission ETV
vector 295 RSUExampleScenario.node[59].veinsmobility posx ETV
vector 296 RSUExampleScenario.node[59].veinsmobility posy ETV
vector 297 RSUExampleScenario.node[59].veinsmobility speed ETV
vector 298 RSUExampleScenario.node[59].veinsmobility acceleration ETV
vector 299 RSUExampleScenario.node[59].veinsmobility co2emission ETV
vector 300 RSUExampleScenario.node[60].veinsmobility posx ETV
vector 301 RSUExampleScenario.node[60].veinsmobility posy ETV
vector 302 RSUExampleScenario.node[60].veinsmobility speed ETV
vector 303 RSUExampleScenario.node[60].veinsmobility acceleration ETV
vector 304 RSUExampleScenario.node[60].veinsmobility co2emission ETV
vector 305 RSUExampleScenario.node[61].veinsmobility posx ETV
vector 306 RSUExampleScenario.node[61].veinsmobility posy ETV
vector 307 RSUExampleScenario.node[61].veinsmobility speed ETV
vector 308 RSUExampleScenario.node[61].veinsmobility acceleration ETV
vector 309 RSUExampleScenario.node[61].veinsmobility co2emission ETV
vector 310 RSUExampleScenario.node[62].veinsmobility posx ETV
vector 311 RSUExampleScenario.node[62].veinsmobility posy ETV
vector 312 RSUExampleScenario.node[62].veinsmobility speed ETV
vector 313 RSUExampleScenario.node[62].veinsmobility acceleration ETV
vector 314 RSUExampleScenario.node[62].veinsmobility co2emission ETV
vector 315 RSUExampleScenario.node[63].veinsmobility posx ETV
vector 316 RSUExampleScenario.node[63].veinsmobility posy ETV
vector 317 RSUExampleScenario.node[63].veinsmobility speed ETV
vector 318 RSUExampleScenario.node[63].veinsmobility acceleration ETV
vector 319 RSUExampleScenario.node[63].veinsmobility co2emission ETV
vector 320 RSUExampleScenario.node[64].veinsmobility posx ETV
vector 321 RSUExampleScenario.node[64].veinsmobility posy ETV
vector 322 RSUExampleScenario.node[64].veinsmobility speed ETV
vector 323 RSUExampleScenario.node[64].veinsmobility acceleration ETV
vector 324 RSUExampleScenario.node[64].veinsmobility co2emission ETV
vector 325 RSUExampleScenario.node[65].veinsmobility posx ETV
vector 326 RSUExampleScenario.node[65].veinsmobility posy ETV
vector 327 RSUExampleScenario.node[65].veinsmobility speed ETV
vector 328 RSUExampleScenario.node[65].veinsmobility acceleration ETV
vector 329 RSUExampleScenario.node[65].veinsmobility co2emission ETV
vector 330 RSUExampleScenario.node[66].veinsmobility posx ETV
vector 331 RSUExampleScenario.node[66].veinsmobility posy ETV
vector 332 RSUExampleScenario.node[66].veinsmobility speed ETV
4	4	3	4.1962556146115
4	5	4	4.6765885426193
4	6	5	5.9822455727343
4	7	6	6.7469998477461
4	8	7	8.9023657158011
4	9	8	3.651678681686
4	10	9	1.6857621818206
4	11	10	2.3276633668785
4	12	11	2.0995306276608
4	13	12	1.7923040941768
4	14	13	2.0305681317735
4	15	14	1.9844951865828
4	16	15	2.2187318873595
4	17	16	2.1416854339172
4	18	17	1.8896148890835
4	19	18	2.0499339673421
4	20	19	0.973
4	21	20	0.973
4	22	21	3.236958348016
4	23	22	7.0694109561587
4	24	23	7.2974163894139
4	25	24	8.7433911631671
4	26	25	1.9831721788576
4	27	26	2.116835898497
4	28	27	1.9244585801898
4	29	28	1.8775583559564
4	30	29	1.9545657515643
4	31	30	2.0931646705581
4	32	31	2.2926746988581
4	33	32	1.993865292131
4	34	33	1.6968396252803
4	35	34	2.4149847823944
4	36	35	1.6983583398882
4	37	36	1.9906198998388
4	38	37	2.3442713071536
4	39	38	1.7018725964397
4	40	39	2.0993392475273
4	41	40	1.9585122345881
4	42	41	2.4691677522194
4	43	42	1.9170802753567
4	44	43	1.8345014514108
4	45	44	2.0838538984303
4	46	45	2.0539801513469
4	47	46	2.0668686152862
4	48	47	1.9813596940184
4	49	48	2.1840996762636
4	50	49	2.0987681125428
4	51	50	1.8592856847688
4	52	51	2.0145873760113
4	53	52	2.0950692067684
4	54	53	1.8080099866508
4	55	54	1.9870007069688
4	56	55	2.2415869227426
4	57	56	2.0614496349521
4	58	57	2.0646020593826
4	59	58	1.8102089718445
4	60	59	2.1453880261281
4	61	60	1.9826536733129
4	62	61	2.0673636130683
4	63	62	2.0538817544551
4	64	63	2.1528270365066
4	65	64	2.0265038417738
4	66	65	1.9764402783138
4	67	66	2.2347131127692
4	68	67	2.0405446651404
4	69	68	1.6487905152147
4	70	69	2.0126291187762
4	71	70	2.0466796925005
4	72	71	2.3433989621326
4	73	72	0.973
4	74	73	0.973
4	76	74	0.973
4	77	75	0.973
4	78	76	0.973
4	79	77	0.973
4	80	78	0.973
4	81	79	0.973
4	82	80	0.973
4	83	81	0.973
4	84	82	0.973
4	85	83	0.973
4	86	84	0.973
4	203	85	0.973
4	204	86	0.973
4	2052	87	0.973
4	2053	88	0.973
4	6759	89	0.973
4	6760	90	0.973
4	11694	91	0.973
4	11695	92	0.973
4	16483	93	0.973
4	16484	94	0.973
4	21521	95	0.973
4	21522	96	0.973
4	26375	97	0.973
4	26376	98	0.973
4	31210	99	0.973
4	31211	100	0.973
4	36113	101	0.973
4	36114	102	0.973
4	41145	103	0.973
4	41147	104	0.973
4	46207	105	0.973
4	46208	106	0.973
4	51187	107	0.973
4	51188	108	0.973
4	55952	109	0.973
4	55953	110	0.973
4	60648	111	0.973
4	60649	112	0.973
4	65610	113	0.973
4	65611	114	0.973
4	70428	115	0.973
4	70429	116	0.973
4	75463	117	0.973
4	75464	118	0.973
4	80452	119	0.973
4	80453	120	0.973
4	85653	121	0.973
4	85654	122	0.973
4	90744	123	0.973
4	90746	124	2.4080817491368
4	96036	125	3.6097150181135
4	96037	126	4.2908662920557
4	101663	127	5.3300190940896
4	101664	128	6.7716083595646
4	107396	129	8.2306431470796
4	107397	130	7.3964630212997
4	115322	131	1.8694407969886
4	115323	132	2.1350370330868
4	124116	133	1.8094749832879
4	124118	134	2.4017242150946
4	133536	135	1.8653612770894
4	133537	136	1.8398927616686
4	143209	137	1.9973272185625
4	143210	138	2.1700231934041
4	153102	139	2.1950764783891
4	153103	140	2.1348521217125
4	163378	141	1.848423466467
4	163379	142	2.0679571445659
4	174183	143	1.7820942605596
4	174184	144	2.0749497938408
4	185140	145	2.1041555485124
4	185141	146	2.0461934569666
4	196319	147	2.0977460374518
4	196320	148	2.0775076200446
4	207950	149	2.0021532082224
4	207951	150	1.8438174528787
4	219608	151	2.3799842198344
4	219609	152	1.8407138090759
4	231348	153	1.8574406286347
4	231350	154	2.3123894181885
4	243520	155	2.1535598612525
4	243521	156	1.9691423592976
4	256520	157	1.9376113298153
4	256521	158	2.0599739597323
4	269967	159	1.8765833152484
4	270153	160	1.9776849407054
4	284168	161	2.1389434248576
4	286549	162	1.880046652652
4	300380	163	2.1744942583174
4	309081	164	2.1485598299828
4	322835	165	2.1780523429234
4	338322	166	2.006515889368
4	352370	167	1.925631167968
4	367817	168	2.0271072571429
4	381000	169	1.963148023397
4	397297	170	1.9801919981003
4	410071	171	1.9857054682484
4	426147	172	2.0623913420123
4	438206	173	2.0746881752127
4	454551	174	2.0282810489433
4	465900	175	1.9376672998449
4	483186	176	2.285007598429
4	493773	177	1.6767761419313
4	511514	178	2.4332477356262
4	521381	179	1.8460433705176
4	539984	180	2.0203672994068
4	549033	181	1.8544662206567
4	568292	182	2.2090912431541
4	575964	183	2.198281357827
4	595626	184	1.9105438619255
4	600391	185	1.9432522168217
4	622281	186	1.8729139523164
4	627223	187	2.3310418970644
4	647931	188	2.0339893406711
4	651252	189	1.9588154794703
4	669909	190	1.9105989736012
4	674676	191	1.996694755614
4	691991	192	2.1865237989144
4	695353	193	2.0872024215168
4	714407	194	2.142943100938
4	716836	195	1.699996971236
4	736644	196	2.2322711499158
4	737431	197	1.8061360510748
4	757431	198	2.3291141609331
4	758037	199	1.7707192427041
4	777629	200	1.9909162058012
3	4	3	1.9133529532584
3	5	4	1.6952873393311
3	6	5	1.8731499400432
3	7	6	1.8034025248489
3	8	7	2.1224504257739
3	9	8	0.47851136310433
3	10	9	-0.1021267059911
3	11	10	0.086452728209551
3	12	11	0.018149402965792
3	13	12	-0.071146251906175
3	14	13	-0.0001373288989992
3	15	14	-0.013471481548622
3	16	15	0.054527352924923
3	17	16	0.03063477210002
3	18	17	-0.04292928970186
3	19	18	0.0046075960877356
3	20	19	-2.4534173319781
3	21	20	-4.5
3	22	21	0.8935116339894
3	23	22	2.2078255666373
3	24	23	1.8858743545134
3	25	24	1.9903831391631
3	26	25	-0.01549494290026
3	27	26	0.023465231521987
3	28	27	-0.032681161146611
3	29	28	-0.045395484422334
3	30	29	-0.021798015409148
3	31	30	0.019004409639164
3	32	31	0.075803257238585
3	33	32	-0.012492124584968
3	34	33	-0.098418530665803
3	35	34	0.11205169297755
3	36	35	-0.098285225864965
3	37	36	-0.01064266787842
3	38	37	0.091707072502468
3	39	38	-0.096865584938786
3	40	39	0.021350334375166
3	41	40	-0.020129852422979
3	42	41	0.12754734932445
3	43	42	-0.035107081409079
3	44	43	-0.058123281914741
3	45	44	0.015779600332026
3	46	45	0.0066701874043797
3	47	46	0.010192284216172
3	48	47	-0.014827134867664
3	49	48	0.044105808557942
3	50	49	0.018181241797283
3	51	50	-0.051492602068466
3	52	51	-0.0050966037251055
3	53	52	0.018296227052343
3	54	53	-0.065421910630539
3	55	54	-0.011582619075197
3	56	55	0.062391626026946
3	57	56	0.0084849686850799
3	58	57	0.0091393382777465
3	59	58	-0.064856647045817
3	60	59	0.034172988792415
3	61	60	-0.013924592840485
3	62	61	0.011007046941668
3	63	62	0.0067783149331806
3	64	63	0.035106239686721
3	65	64	-0.0023704322986315
3	66	65	-0.016764806038699
3	67	66	0.058098005878273
3	68	67	0.0005279496987356
3	69	68	-0.11307939741528
3	70	69	-0.0042316347081215
3	71	70	0.0057685952470639
3	72	71	0.091050112515221
3	73	72	-2.598181629278
3	74	73	-4.5
3	76	74	-4.5
3	77	75	-2.3805052288885
3	78	76	0
3	79	77	0
3	80	78	0
3	81	79	0
3	82	80	0
3	83	81	0
3	84	82	0
3	85	83	0
3	86	84	0
3	203	85	0
3	204	86	0
3	2052	87	0
3	2053	88	0
3	6759	89	0
3	6760	90	0
3	11694	91	0
3	11695	92	0
3	16483	93	0
3	16484	94	0
3	21521	95	0
3	21522	96	0
3	26375	97	0
3	26376	98	0
3	31210	99	0
3	31211	100	0
3	36113	101	0
3	36114	102	0
3	41145	103	0
3	41147	104	0
3	46207	105	0
3	46208	106	0
3	51187	107	0
3	51188	108	0
3	55952	109	0
3	55953	110	0
3	60648	111	0
3	60649	112	0
3	65610	113	0
3	65611	114	0
3	70428	115	0
3	70429	116	0
3	75463	117	0
3	75464	118	0
3	80452	119	0
3	80453	120	0
3	85653	121	0
3	85654	122	0
3	90744	123	0
3	90746	124	2.2219942613752
3	96036	125	2.1596709975521
3	96037	126	1.8894331387547
3	101663	127	1.9135758166644
3	101664	128	2.0540839163866
3	107396	129	2.1299765114859
3	107397	130	1.593374629586
3	115322	131	-0.047903634139804
3	115323	132	0.030312081675511
3	124116	133	-0.064897888868581
3	124118	134	0.10802168874536
3	133536	135	-0.0497557142633
3	133537	136	-0.055867572841235
3	143209	137	-0.0085553559428089
3	143210	138	0.041701517160982
3	153102	139	0.047561781599653
3	153103	140	0.028731313557364
3	163378	141	-0.054766569577623
3	163379	142	0.0102753423783
3	174183	143	-0.0729428983666
3	174184	144	0.014196870999875
3	185140	145	0.022211705013179
3	185141	146	0.0047752809897066
3	196319	147	0.019526570434682
3	196320	148	0.013089853518178
3	207950	149	-0.0090582387568432
3	207951	150	-0.054747348378879
3	219608	151	0.10164703844814
3	219609	152	-0.056854708525352
3	231348	153	-0.050522710871883
3	231350	154	0.082494842805898
3	243520	155	0.034164765405004
3	243521	156	-0.019936257582158
3	256520	157	-0.028491328672972
3	256521	158	0.0076764976140122
3	269967	159	-0.045621059627738
3	270153	160	-0.015019283806906
3	284168	161	0.032090983500238
3	286549	162	-0.043859175492543
3	300380	163	0.0427219880349
3	309081	164	0.03388046368258
3	322835	165	0.041269413393456
3	338322	166	-0.0092962008621544
3	352370	167	-0.032377658656332
3	367817	168	-0.0021463327482358
3	381000	169	-0.02056851565605
3	397297	170	-0.015052578437608
3	410071	171	-0.013025680247228
3	426147	172	0.00955739028519
3	438206	173	0.01282215393614
3	454551	174	-0.00097224716562749
3	465900	175	-0.027193966526537
3	483186	176	0.073840194195508
3	493773	177	-0.10436903486028
3	511514	178	0.1173502929369
3	521381	179	-0.055373845396097
3	539984	180	-0.003356817669701
3	549033	181	-0.051406734401827
3	568292	182	0.05281300381059
3	575964	183	0.047967763310298
3	595626	184	-0.036431140976493
3	600391	185	-0.025957153635099
3	622281	186	-0.045693372322713
3	627223	187	0.088107873904519
3	647931	188	-0.00018733944743765
3	651252	189	-0.021902840822005
3	669909	190	-0.035276938492897
3	674676	191	-0.0093024374893869
3	691991	192	0.045849522822536
3	695353	193	0.015783651277889
3	714407	194	0.031335126811172
3	716836	195	-0.097808186309411
3	736644	196	0.059174585088622
3	737431	197	-0.065922225145624
3	757431	198	0.087206838617567
3	758037	199	-0.076768993306905
3	777629	200	-0.010678268959746
2	3	2	4.1061966058897
2	4	3	6.0195495591482
2	5	4	7.7148368984793
2	6	5	9.5879868385225
2	7	6	11.391389363371
2	8	7	13.513839789145
2	9	8	13.99235115225
2	10	9	13.890224446259
2	11	10	13.976677174468
2	12	11	13.994826577434
2	13	12	13.923680325528
2	14	13	13.923542996629
2	15	14	13.91007151508
2	16	15	13.964598868005
2	17	16	13.995233640105
2	18	17	13.952304350403
2	19	18	13.956911946491
2	20	19	11.503494614513
2	21	20	7.0034946145128
2	22	21	7.8970062485022
2	23	22	10.10483181514
2	24	23	11.990706169653
2	25	24	13.981089308816
2	26	25	13.965594365916
2	27	26	13.989059597438
2	28	27	13.956378436291
2	29	28	13.910982951869
2	30	29	13.88918493646
2	31	30	13.908189346099
2	32	31	13.983992603337
2	33	32	13.971500478752
2	34	33	13.873081948087
2	35	34	13.985133641064
2	36	35	13.886848415199
2	37	36	13.876205747321
2	38	37	13.967912819823
2	39	38	13.871047234884
2	40	39	13.89239756926
2	41	40	13.872267716837
2	42	41	13.999815066161
2	43	42	13.964707984752
2	44	43	13.906584702837
2	45	44	13.922364303169
2	46	45	13.929034490574
2	47	46	13.93922677479
2	48	47	13.924399639922
2	49	48	13.96850544848
2	50	49	13.986686690277
2	51	50	13.935194088209
2	52	51	13.930097484484
2	53	52	13.948393711536
2	54	53	13.882971800906
2	55	54	13.87138918183
2	56	55	13.933780807857
2	57	56	13.942265776542
2	58	57	13.95140511482
2	59	58	13.886548467774
2	60	59	13.920721456567
2	61	60	13.906796863726
2	62	61	13.917803910668
2	63	62	13.924582225601
2	64	63	13.959688465288
2	65	64	13.957318032989
2	66	65	13.940553226951
2	67	66	13.998651232829
2	68	67	13.999179182528
2	69	68	13.886099785112
2	70	69	13.881868150404
2	71	70	13.887636745651
2	72	71	13.978686858166
2	73	72	11.380505228889
2	74	73	6.8805052288885
2	76	74	2.3805052288885
2	77	75	0
2	78	76	0
2	79	77	0
2	80	78	0
2	81	79	0
2	82	80	0
2	83	81	0
2	84	82	0
2	85	83	0
2	86	84	0
2	203	85	0
2	204	86	0
2	2052	87	0
2	2053	88	0
2	6759	89	0
2	6760	90	0
2	11694	91	0
2	11695	92	0
2	16483	93	0
2	16484	94	0
2	21521	95	0
2	21522	96	0
2	26375	97	0
2	26376	98	0
2	31210	99	0
2	31211	100	0
2	36113	101	0
2	36114	102	0
2	41145	103	0
2	41147	104	0
2	46207	105	0
2	46208	106	0
2	51187	107	0
2	51188	108	0
2	55952	109	0
2	55953	110	0
2	60648	111	0
2	60649	112	0
2	65610	113	0
2	65611	114	0
2	70428	115	0
2	70429	116	0
2	75463	117	0
2	75464	118	0
2	80452	119	0
2	80453	120	0
2	85653	121	0
2	85654	122	0
2	90744	123	0
2	90746	124	2.2219942613752
2	96036	125	4.3816652589273
2	96037	126	6.271098397682
2	101663	127	8.1846742143464
2	101664	128	10.238758130733
2	107396	129	12.368734642219
2	107397	130	13.962109271805
2	115322	131	13.914205637665
2	115323	132	13.944517719341
2	124116	133	13.879619830472
2	124118	134	13.987641519217
2	133536	135	13.937885804954
2	133537	136	13.882018232113
2	143209	137	13.87346287617
2	143210	138	13.915164393331
2	153102	139	13.962726174931
2	153103	140	13.991457488488
2	163378	141	13.93669091891
2	163379	142	13.946966261289
2	174183	143	13.874023362922
2	174184	144	13.888220233922
2	185140	145	13.910431938935
2	185141	146	13.915207219925
2	196319	147	13.934733790359
2	196320	148	13.947823643878
2	207950	149	13.938765405121
2	207951	150	13.884018056742
2	219608	151	13.98566509519
2	219609	152	13.928810386665
2	231348	153	13.878287675793
2	231350	154	13.960782518599
2	243520	155	13.994947284004
2	243521	156	13.975011026422
2	256520	157	13.946519697749
2	256521	158	13.954196195363
2	269967	159	13.908575135735
2	270153	160	13.893555851928
2	284168	161	13.925646835428
2	286549	162	13.881787659936
2	300380	163	13.924509647971
2	309081	164	13.958390111653
2	322835	165	13.999659525047
2	338322	166	13.990363324184
2	352370	167	13.957985665528
2	367817	168	13.95583933278
2	381000	169	13.935270817124
2	397297	170	13.920218238686
2	410071	171	13.907192558439
2	426147	172	13.916749948724
2	438206	173	13.92957210266
2	454551	174	13.928599855495
2	465900	175	13.901405888968
2	483186	176	13.975246083164
2	493773	177	13.870877048303
2	511514	178	13.98822734124
2	521381	179	13.932853495844
2	539984	180	13.929496678174
2	549033	181	13.878089943773
2	568292	182	13.930902947583
2	575964	183	13.978870710894
2	595626	184	13.942439569917
2	600391	185	13.916482416282
2	622281	186	13.870789043959
2	627223	187	13.958896917864
2	647931	188	13.958709578416
2	651252	189	13.936806737594
2	669909	190	13.901529799101
2	674676	191	13.892227361612
2	691991	192	13.938076884435
2	695353	193	13.953860535712
2	714407	194	13.985195662524
2	716836	195	13.887387476214
2	736644	196	13.946562061303
2	737431	197	13.880639836157
2	757431	198	13.967846674775
2	758037	199	13.891077681468
2	777629	200	13.880399412508
1	2	1	1578.4613427464
1	3	2	1579.5715045081
1	4	3	1581.5561876604
1	5	4	1586.4898643075
1	6	5	1592.7177137369
1	7	6	1600.2534592729
1	8	7	1609.1769437566
1	9	8	1619.0710908128
1	10	9	1629.0037637418
1	11	10	1638.9341008412
1	12	11	1649.1129276818
1	13	12	1661.0453354148
1	14	13	1673.5713017788
1	15	14	1682.4825292248
1	16	15	1691.8131453674
1	17	16	1695.5671389326
1	18	17	1697.3762977775
1	19	18	1698.7149431584
1	20	19	1699.9531973498
1	21	20	1700.8030368192
1	22	21	1701.4822415169
1	23	22	1709.488976148
1	24	23	1720.5600911779
1	25	24	1733.5392477075
1	26	25	1747.3162704222
1	27	26	1761.1584832035
1	28	27	1775.0702432813
1	29	28	1788.9649324082
1	30	29	1802.8657313576
1	31	30	1816.7641749373
1	32	31	1830.6712168986
1	33	32	1844.5682703312
1	34	33	1858.4757581847
1	35	34	1872.3796654344
1	36	35	1886.2682729438
1	37	36	1900.1617258992
1	38	37	1914.0672918586
1	39	38	1927.95593304
1	40	39	1941.8192613758
1	41	40	1955.7024557721
1	42	41	1969.5841215905
1	43	42	1983.4787444612
1	44	43	1997.3802024601
1	45	44	2011.2714909082
1	46	45	2025.1553793969
1	47	46	2039.0458765477
1	48	47	2052.9329446238
1	49	48	2066.8462265795
1	50	49	2080.7728807703
1	51	50	2094.6498483503
1	52	51	2107.3969092406
1	53	52	2116.410831539
1	54	53	2120.9360540062
1	55	54	2120.5048353085
1	56	55	2120.0344859883
1	57	56	2119.5641121576
1	58	57	2119.0944308629
1	59	58	2118.6240558857
1	60	59	2118.1536666537
1	61	60	2117.6824006466
1	62	61	2117.2121830918
1	63	62	2116.7411177447
1	64	63	2116.2712858524
1	65	64	2115.8005333487
1	66	65	2114.7955725584
1	67	66	2112.8364102887
1	68	67	2110.6440530941
1	69	68	2106.1704403665
1	70	69	2101.6975887315
1	71	70	2096.6391956527
1	72	71	2089.5697793076
1	73	72	2082.9376931852
1	74	73	2078.419863862
1	76	74	2076.1849181512
1	77	75	2075.9235266512
1	78	76	2075.9235266512
1	79	77	2075.9235266512
1	80	78	2075.9235266512
1	81	79	2075.9235266512
1	82	80	2075.9235266512
1	83	81	2075.9235266512
1	84	82	2075.9235266512
1	85	83	2075.9235266512
1	86	84	2075.9235266512
1	203	85	2075.9235266512
1	204	86	2075.9235266512
1	2052	87	2075.9235266512
1	2053	88	2075.9235266512
1	6759	89	2075.9235266512
1	6760	90	2075.9235266512
1	11694	91	2075.9235266512
1	11695	92	2075.9235266512
1	16483	93	2075.9235266512
1	16484	94	2075.9235266512
1	21521	95	2075.9235266512
1	21522	96	2075.9235266512
1	26375	97	2075.9235266512
1	26376	98	2075.9235266512
1	31210	99	2075.9235266512
1	31211	100	2075.9235266512
1	36113	101	2075.9235266512
1	36114	102	2075.9235266512
1	41145	103	2075.9235266512
1	41147	104	2075.9235266512
1	46207	105	2075.9235266512
1	46208	106	2075.9235266512
1	51187	107	2075.9235266512
1	51188	108	2075.9235266512
1	55952	109	2075.9235266512
1	55953	110	2075.9235266512
1	60648	111	2075.9235266512
1	60649	112	2075.9235266512
1	65610	113	2075.9235266512
1	65611	114	2075.9235266512
1	70428	115	2075.9235266512
1	70429	116	2075.9235266512
1	75463	117	2075.9235266512
1	75464	118	2075.9235266512
1	80452	119	2075.9235266512
1	80453	120	2075.9235266512
1	85653	121	2075.9235266512
1	85654	122	2075.9235266512
1	90744	123	2075.9235266512
1	90746	124	2075.1249021161
1	96036	125	2072.86423006
1	96037	126	2068.9174167952
1	101663	127	2063.5465694079
1	101664	128	2056.7840990741
1	107396	129	2048.4871348105
1	107397	130	2038.7371108737
1	115322	131	2028.5646912949
1	115323	132	2018.3838472413
1	124116	133	2008.2254692623
1	124118	134	1998.0370962676
1	133536	135	1987.8723763861
1	133537	136	1977.7352778362
1	143209	137	1968.0349910427
1	143210	138	1958.3397735637
1	153102	139	1948.6021926794
1	153103	140	1938.8772351909
1	163378	141	1929.1461740322
1	163379	142	1919.4259242518
1	174183	143	1909.7162718913
1	174184	144	1900.0064946283
1	185140	145	1890.2926928708
1	185141	146	1880.5856528329
1	196319	147	1870.8754119454
1	196320	148	1860.9048139649
1	207950	149	1850.9378715828
1	207951	150	1840.9644936612
1	219608	151	1830.9834026285
1	219609	152	1821.0187012684
1	231348	153	1811.034208905
1	231350	154	1801.0597736975
1	243520	155	1791.0844194526
1	243521	156	1781.1108008912
1	256520	157	1771.1343694674
1	256521	158	1761.3842561403
1	269967	159	1751.7881461149
1	270153	160	1742.1872167662
1	284168	161	1732.436735265
1	286549	162	1722.6792902993
1	300380	163	1712.9214289747
1	309081	164	1703.179755724
1	322835	165	1693.428763791
1	338322	166	1683.6651881458
1	352370	167	1673.9025948867
1	367817	168	1664.1512354324
1	381000	169	1654.3922483223
1	397297	170	1644.6436635256
1	410071	171	1634.8820946105
1	426147	172	1625.132721534
1	438206	173	1615.368364349
1	454551	174	1605.6200321727
1	465900	175	1595.8723428259
1	483186	176	1586.1139959991
1	493773	177	1576.3562804013
1	511514	178	1566.5952746831
1	521381	179	1556.8313509338
1	539984	180	1547.0639432156
1	549033	181	1537.1603328288
1	568292	182	1527.2430443699
1	575964	183	1517.3340865811
1	595626	184	1507.4217998395
1	600391	185	1497.52566633
1	622281	186	1488.276095828
1	627223	187	1479.135689225
1	647931	188	1470.012443237
1	651252	189	1460.8795263516
1	669909	190	1451.7502235547
1	674676	191	1443.2179276226
1	691991	192	1435.1828273041
1	695353	193	1427.1518755257
1	714407	194	1419.1006482886
1	716836	195	1411.0663912967
1	736644	196	1404.3397739995
1	737431	197	1398.3954908364
1	757431	198	1392.4369726535
1	758037	199	1386.4815789117
1	777629	200	1382.1356590819
0	2	1	2414.8476884116
0	3	2	2411.8243290941
0	4	3	2407.1592244543
0	5	4	2402.288200066
0	6	5	2396.1394374635
0	7	6	2388.6993875942
0	8	7	2379.889221533
0	9	8	2370.1207192459
0	10	9	2360.3141803208
0	11	10	2350.5099475634
0	12	11	2341.0010868867
0	13	12	2334.5620136983
0	14	13	2337.6803779466
0	15	14	2348.3497968862
0	16	15	2358.6961674725
0	17	16	2371.6616533546
0	18	17	2385.4706804305
0	19	18	2399.3588350668
0	20	19	2412.4541998667
0	21	20	2421.4418196582
0	22	21	2428.417609864
0	23	22	2431.468930052
0	24	23	2433.1513403206
0	25	24	2435.1237040944
0	26	25	2437.2173147583
0	27	26	2438.6437980286
0	28	27	2439.5074353185
0	29	28	2440.517813261
0	30	29	2441.5286354903
0	31	30	2442.5392864447
0	32	31	2443.5505626462
0	33	32	2444.5611125134
0	34	33	2445.5724211388
0	35	34	2446.5834693939
0	36	35	2447.5934051003
0	37	36	2448.6036931522
0	38	37	2449.6148620235
0	39	38	2450.6248001783
0	40	39	2449.5880553933
0	41	40	2448.4757357414
0	42	41	2447.3635385588
0	43	42	2446.250303259
0	44	43	2445.1365203297
0	45	44	2444.0235521834
0	46	45	2442.9111769209
0	47	46	2441.7982721732
0	48	47	2440.6856421625
0	49	48	2439.7151308154
0	50	49	2438.7725309408
0	51	50	2437.9056889905
0	52	51	2432.8785054281
0	53	52	2422.5273191113
0	54	53	2409.439604845
0	55	54	2395.517893619
0	56	55	2381.592286239
0	57	56	2367.6659531716
0	58	57	2353.7601239877
0	59	58	2339.8337569573
0	60	59	2325.9069679289
0	61	60	2311.9542202253
0	62	61	2298.0325140053
0	63	62	2284.0857072632
0	64	63	2270.1754193477
0	65	64	2256.2378749268
0	66	65	2242.3725172955
0	67	66	2228.5568932705
0	68	67	2214.8035730832
0	69	68	2201.6130456962
0	70	69	2188.4247624045
0	71	70	2175.5107078577
0	72	71	2163.5018647154
0	73	72	2152.2359160049
0	74	73	2144.5614629743
0	76	74	2140.764952604
0	77	75	2140.3209259163
0	78	76	2140.3209259163
0	79	77	2140.3209259163
0	80	78	2140.3209259163
0	81	79	2140.3209259163
0	82	80	2140.3209259163
0	83	81	2140.3209259163
0	84	82	2140.3209259163
0	85	83	2140.3209259163
0	86	84	2140.3209259163
0	203	85	2140.3209259163
0	204	86	2140.3209259163
0	2052	87	2140.3209259163
0	2053	88	2140.3209259163
0	6759	89	2140.3209259163
0	6760	90	2140.3209259163
0	11694	91	2140.3209259163
0	11695	92	2140.3209259163
0	16483	93	2140.3209259163
0	16484	94	2140.3209259163
0	21521	95	2140.3209259163
0	21522	96	2140.3209259163
0	26375	97	2140.3209259163
0	26376	98	2140.3209259163
0	31210	99	2140.3209259163
0	31211	100	2140.3209259163
0	36113	101	2140.3209259163
0	36114	102	2140.3209259163
0	41145	103	2140.3209259163
0	41147	104	2140.3209259163
0	46207	105	2140.3209259163
0	46208	106	2140.3209259163
0	51187	107	2140.3209259163
0	51188	108	2140.3209259163
0	55952	109	2140.3209259163
0	55953	110	2140.3209259163
0	60648	111	2140.3209259163
0	60649	112	2140.3209259163
0	65610	113	2140.3209259163
0	65611	114	2140.3209259163
0	70428	115	2140.3209259163
0	70429	116	2140.3209259163
0	75463	117	2140.3209259163
0	75464	118	2140.3209259163
0	80452	119	2140.3209259163
0	80453	120	2140.3209259163
0	85653	121	2140.3209259163
0	85654	122	2140.3209259163
0	90744	123	2140.3209259163
0	90746	124	2139.2968867624
0	96036	125	2136.7389751441
0	96037	126	2133.0417300543
0	101663	127	2128.0104965516
0	101664	128	2121.6756363601
0	107396	129	2113.9033126336
0	107397	130	2104.7698103111
0	115322	131	2095.2406216187
0	115323	132	2085.7035411549
0	124116	133	2076.1875061716
0	124118	134	2066.6433728429
0	133536	135	2057.1213969737
0	133537	136	2047.5816524108
0	143209	137	2037.6029490368
0	143210	138	2027.6294604754
0	153102	139	2017.6123925993
0	153103	140	2007.6083104342
0	163378	141	1997.5979494115
0	163379	142	1987.5987100747
0	174183	143	1977.6103723238
0	174184	144	1967.6219060847
0	185140	145	1957.6292998412
0	185141	146	1947.6436493916
0	196319	147	1937.6560055723
0	196320	148	1927.9261270026
0	207950	149	1918.1998157738
0	207951	150	1908.4672243788
0	219608	151	1898.7271060897
0	219609	152	1889.0029817786
0	231348	153	1879.2595442766
0	231350	154	1869.5259211212
0	243520	155	1859.791401117
0	243521	156	1850.0585748916
0	256520	157	1840.3230037142
0	256521	158	1830.3485841108
0	269967	159	1820.2447044594
0	270153	160	1810.1357504753
0	284168	161	1800.1565797509
0	286549	162	1790.2001305029
0	300380	163	1780.2432564036
0	309081	164	1770.3029005365
0	322835	165	1760.3530359312
0	338322	166	1750.3903309678
0	352370	167	1740.4286284258
0	367817	168	1730.4783888039
0	381000	169	1720.5203659586
0	397297	170	1710.5729575836
0	410071	171	1700.6123002779
0	426147	172	1690.6640875464
0	438206	173	1680.700585103
0	454551	174	1670.7534345009
0	465900	175	1660.8069398387
0	483186	176	1650.8495703356
0	493773	177	1640.8928449352
0	511514	178	1630.9327623127
0	521381	179	1620.9697021447
0	539984	180	1611.1842184616
0	549033	181	1601.3733578073
0	568292	182	1591.5489471799
0	575964	183	1581.7327892034
0	595626	184	1571.9133334509
0	600391	185	1562.1098796516
0	622281	186	1551.6956564819
0	627223	187	1541.128778133
0	647931	188	1530.5817385224
0	651252	189	1520.0235187536
0	669909	190	1509.4694770956
0	674676	191	1498.4560226137
0	691991	192	1487.0542029819
0	695353	193	1475.6582701355
0	714407	194	1464.2335663815
0	716836	195	1452.8329434313
0	736644	196	1440.6472932805
0	737431	197	1428.0390401752
0	757431	198	1415.4005935659
0	758037	199	1402.7687741226
0	777629	200	1389.5055025555
9	7	6	3.9274001426868
9	8	7	5.2041356246368
9	9	8	5.7574507674447
9	10	9	7.0006276784153
9	11	10	8.2432295261252
9	12	11	3.9110016848773
9	13	12	1.7792042638201
9	14	13	2.0579365757541
9	15	14	2.3818636967155
9	16	15	1.7037407999188
9	17	16	2.0152488537881
9	18	17	2.1655550639215
9	19	18	1.906797412239
9	20	19	2.2849654495652
9	21	20	1.9716653983805
9	22	21	0.973
9	23	22	0.973
9	24	23	0.973
9	25	24	2.2554772362628
9	26	25	5.6120472675651
9	27	26	7.5119842129131
9	28	27	8.4455276517466
9	29	28	3.3560730035355
9	30	29	1.8466200733259
9	31	30	2.0660268329645
9	32	31	2.2281549844786
9	33	32	1.9335288120447
9	34	33	1.9767670407741
9	35	34	1.9283950769156
9	36	35	2.0949799016024
9	37	36	1.9290667558988
9	38	37	2.3468857079218
9	39	38	1.8793040227889
9	40	39	1.8954681876561
9	41	40	2.2553467174174
9	42	41	1.7429567241042
9	43	42	2.0192482635441
9	44	43	2.1827359052182
9	45	44	2.0164367628106
9	46	45	2.1348602115454
9	47	46	2.0878872407227
9	48	47	1.8642059318509
9	49	48	2.0401536442479
9	50	49	1.9464315106901
9	51	50	2.2632042711189
9	52	51	1.851180617826
9	53	52	2.2486511283506
9	54	53	2.0047870143605
9	55	54	2.1193583924862
9	56	55	1.9065956504161
9	57	56	1.8305118457369
9	58	57	2.2544630998412
9	59	58	1.9497933768092
9	60	59	2.199742909699
9	61	60	1.9416842431598
9	62	61	2.0340583936544
9	63	62	1.8947902862501
9	64	63	2.3236156337703
9	65	64	1.8116807487081
9	66	65	2.1067187558746
9	67	66	2.0440470145686
9	68	67	1.9485115452067
9	69	68	2.1878187851485
9	70	69	1.6791237400594
9	71	70	2.2755265645048
9	72	71	2.0225291815531
9	73	72	1.9399893034582
9	74	73	2.0029455902709
9	76	74	0.973
9	77	75	0.973
9	78	76	0.973
9	79	77	0.973
9	80	78	0.973
9	81	79	0.973
9	82	80	0.973
9	83	81	0.973
9	84	82	1.1111121928442
9	85	83	1.1105198636326
9	86	84	1.1102048131311
9	203	85	1.1100724261592
9	204	86	1.1100263596434
9	2052	87	1.1100096669672
9	2053	88	1.1100034420258
9	6759	89	1.11000121776
9	6760	90	0.973
9	11694	91	0.973
9	11695	92	0.973
9	16483	93	0.973
9	16484	94	0.973
9	21521	95	0.973
9	21522	96	0.973
9	26375	97	0.973
9	26376	98	0.973
9	31210	99	0.973
9	31211	100	0.973
9	36113	101	0.973
9	36114	102	0.973
9	41145	103	0.973
9	41147	104	0.973
9	46207	105	0.973
9	46208	106	0.973
9	51187	107	0.973
9	51188	108	0.973
9	55952	109	0.973
9	55953	110	0.973
9	60648	111	0.973
9	60649	112	0.973
9	65610	113	0.973
9	65611	114	0.973
9	70428	115	0.973
9	70429	116	0.973
9	75463	117	0.973
9	75464	118	0.973
9	80452	119	0.973
9	80453	120	0.973
9	85653	121	0.973
9	85654	122	0.973
9	90744	123	0.973
9	90746	124	1.4178069873607
9	96036	125	2.6632254163472
9	96037	126	3.4635077952743
9	101663	127	4.7670103137615
9	101664	128	5.7201137229883
9	107396	129	6.4069038655259
9	107397	130	8.0895409233779
9	115322	131	6.3226518416177
9	115323	132	2.1952654366489
9	124116	133	2.1269451191026
9	124118	134	1.7855558300948
9	133536	135	1.9192758908256
9	133537	136	2.1682894028507
9	143209	137	1.9700401564216
9	143210	138	2.1132780923625
9	153102	139	2.0967521261933
9	153103	140	2.0676394119274
9	163378	141	1.7435781492056
9	163379	142	2.4293300508524
9	174183	143	1.945929812323
9	174184	144	2.0913101916029
9	185140	145	2.0990577040159
9	185141	146	1.7388095837429
9	196319	147	2.1877632083839
9	196320	148	1.9005145370032
9	207950	149	2.1968042961102
9	207951	150	2.0500150684712
9	219608	151	1.8048797568188
9	219609	152	2.3009863061562
9	231348	153	2.0216810197987
9	231350	154	1.780515749493
9	243520	155	2.3632863193112
9	243521	156	1.9812120211058
9	256520	157	1.7694840250872
9	256521	158	2.0512663796081
9	269967	159	1.9983405927992
9	270153	160	1.9242939949574
9	284168	161	2.4276901516778
9	286549	162	1.9562892484012
9	300380	163	1.9563851254971
9	309081	164	2.1691450530814
9	322835	165	2.0288611293971
9	338322	166	1.9548839267273
9	352370	167	1.8279616767825
9	367817	168	2.0240172755128
9	381000	169	2.0779186428145
9	397297	170	2.0388041841175
9	410071	171	1.9303371884883
9	426147	172	2.0876231595316
9	438206	173	1.9356815008423
9	454551	174	2.1044779476447
9	465900	175	2.3055260701722
9	483186	176	1.8307829891951
9	493773	177	2.2662806746104
9	511514	178	1.7548306755801
9	521381	179	2.2720005806138
9	539984	180	1.8301239210578
9	549033	181	1.8855872738616
9	568292	182	2.4706362910478
9	575964	183	1.7428870964557
9	595626	184	2.0695011198832
9	600391	185	2.037269652579
9	622281	186	1.9047507710889
9	627223	187	2.0593117837366
9	647931	188	1.9317252793733
9	651252	189	2.2537691417481
9	669909	190	1.8956369390877
9	674676	191	2.2826056823448
9	691991	192	2.0460615121224
9	695353	193	1.8112959202592
9	714407	194	2.0672622723702
9	716836	195	2.1969438144724
9	736644	196	1.8130641466748
9	737431	197	2.3236278812957
9	757431	198	2.0216425257974
9	758037	199	1.7379786993673
9	777629	200	1.9698217485503
8	7	6	1.7932460927567
8	8	7	1.9587017235276
8	9	8	1.7806746143266
8	10	9	1.8842620940111
8	11	10	1.9413380167005
8	12	11	0.5583961215709
8	13	12	-0.073857417434921
8	14	13	0.0092065779981212
8	15	14	0.10214026641101
8	16	15	-0.096765000070445
8	17	16	-0.0036033386224883
8	18	17	0.039975998615846
8	19	18	-0.036115438612178
8	20	19	0.074191348995083
8	21	20	-0.018364551486448
8	22	21	-0.84955461610103
8	23	22	-1.1580047743662
8	24	23	-4.4608324981877
8	25	24	0.38092674279862
8	26	25	1.7156944106473
8	27	26	2.0360211738362
8	28	27	1.9703013633797
8	29	28	0.39196811840698
8	30	29	-0.054819778876846
8	31	30	0.010270397982096
8	32	31	0.056614504742901
8	33	32	-0.029954661100637
8	34	33	-0.016613695521373
8	35	34	-0.030163104203529
8	36	35	0.018933158169965
8	37	36	-0.029659791311714
8	38	37	0.091685234303586
8	39	38	-0.045763628156855
8	40	39	-0.039857979963999
8	41	40	0.065247988859191
8	42	41	-0.08489584519295
8	43	42	-0.0022564603248618
8	44	43	0.045091817758511
8	45	44	-0.0043246553349299
8	46	45	0.029991914208512
8	47	46	0.015533079409506
8	48	47	-0.0495849183877
8	49	48	0.0027827199501917
8	50	49	-0.024452327373437
8	51	50	0.067736270520836
8	52	51	-0.053276539789513
8	53	52	0.063070073074195
8	54	53	-0.0090693579427903
8	55	54	0.024193826443517
8	56	55	-0.037865431425162
8	57	56	-0.058954789221753
8	58	57	0.065368110591081
8	59	58	-0.024500538792926
8	60	59	0.048295230567454
8	61	60	-0.027506586005911
8	62	61	-3.7945064249811e-05
8	63	62	-0.040341942564119
8	64	63	0.08445247764932
8	65	64	-0.065610413609539
8	66	65	0.021565600365866
8	67	66	0.0028431761614058
8	68	67	-0.024848260174041
8	69	68	0.044910243332852
8	70	69	-0.10373160347343
8	71	70	0.072071757072118
8	72	71	-0.0031103654555054
8	73	72	-0.02690946418792
8	74	73	-0.0079017184418628
8	76	74	-2.3982081225927
8	77	75	-3.1547147577576
8	78	76	-2.8111589805542
8	79	77	-2.2363684301998
8	80	78	-1.6725534009427
8	81	79	-0.91763058940095
8	82	80	-0.45977705147342
8	83	81	-0.16111585056513
8	84	82	-0.062747749127738
8	85	83	-0.021508816112765
8	86	84	-0.0076593801660245
8	203	85	-0.002891262698174
8	204	86	-0.00097427582999232
8	2052	87	-0.00034835721289857
8	2053	88	-0.00012934429770995
8	6759	89	-4.6148643624144e-05
8	6760	90	-2.5249602854094e-05
8	11694	91	0
8	11695	92	0
8	16483	93	0
8	16484	94	0
8	21521	95	0
8	21522	96	0
8	26375	97	0
8	26376	98	0
8	31210	99	0
8	31211	100	0
8	36113	101	0
8	36114	102	0
8	41145	103	0
8	41147	104	0
8	46207	105	0
8	46208	106	0
8	51187	107	0
8	51188	108	0
8	55952	109	0
8	55953	110	0
8	60648	111	0
8	60649	112	0
8	65610	113	0
8	65611	114	0
8	70428	115	0
8	70429	116	0
8	75463	117	0
8	75464	118	0
8	80452	119	0
8	80453	120	0
8	85653	121	0
8	85654	122	0
8	90744	123	0
8	90746	124	1.0342890448911
8	96036	125	1.9534991256854
8	96037	126	1.8215262676082
8	101663	127	2.0079014630048
8	101664	128	1.9518008967979
8	107396	129	1.8303671085183
8	107397	130	2.0315273079113
8	115322	131	1.280444437214
8	115323	132	0.047740650703199
8	124116	133	0.026573255173863
8	124118	134	-0.072883409399074
8	133536	135	-0.03210226023104
8	133537	136	0.040968228552956
8	143209	137	-0.017607946088537
8	143210	138	0.024355108910239
8	153102	139	0.018833703720011
8	153103	140	0.0098656048648991
8	163378	141	-0.084429220608435
8	163379	142	0.1161646957742
8	174183	143	-0.026468190946616
8	174184	144	0.016224144210573
8	185140	145	0.017954750047066
8	185141	146	-0.086752803607379
8	196319	147	0.045634120837786
8	196320	148	-0.038706488069147
8	207950	149	0.048007548274473
8	207951	150	0.0042608453403226
8	219608	151	-0.066847989798989
8	219609	152	0.078394003864377
8	231348	153	-0.0043714303267191
8	231350	154	-0.074117545965127
8	243520	155	0.096223014865537
8	243521	156	-0.016548605826683
8	256520	157	-0.077465037947986
8	256521	158	0.0064275499852364
8	269967	159	-0.0090893771266565
8	270153	160	-0.030336456936784
8	284168	161	0.11574898932362
8	286549	162	-0.023424426829443
8	300380	163	-0.022742380010895
8	309081	164	0.039277818629053
8	322835	165	-0.0022900215862336
8	338322	166	-0.023574351174757
8	352370	167	-0.059759290162473
8	367817	168	-0.0011746940901496
8	381000	169	0.014468565683346
8	397297	170	0.0027157383551817
8	410071	171	-0.028823833672796
8	426147	172	0.017632111532148
8	438206	173	-0.026961142108776
8	454551	174	0.022797123109923
8	465900	175	0.0799381512939
8	483186	176	-0.059468666124157
8	493773	177	0.067985334468538
8	511514	178	-0.081778387010562
8	521381	179	0.070096094980835
8	539984	180	-0.059579664238262
8	549033	181	-0.041892834790051
8	568292	182	0.12803532975726
8	575964	183	-0.085611065994017
8	595626	184	0.011441160412506
8	600391	185	0.0017819580738418
8	622281	186	-0.036686353047843
8	627223	187	0.009202043521217
8	647931	188	-0.028092538847122
8	651252	189	0.065925904582256
8	669909	190	-0.039613456092775
8	674676	191	0.073309048379306
8	691991	192	0.0029606359754677
8	695353	193	-0.065084001887589
8	714407	194	0.010940920417196
8	716836	195	0.047974466911983
8	736644	196	-0.064414862366393
8	737431	197	0.08486426799791
8	757431	198	-0.0045823919074603
8	758037	199	-0.086670791869984
8	777629	200	-0.016948586606885
7	6	5	4.0332649588119
7	7	6	5.8265110515686
7	8	7	7.7852127750962
7	9	8	9.5658873894228
7	10	9	11.450149483434
7	11	10	13.391487500134
7	12	11	13.949883621705
7	13	12	13.87602620427
7	14	13	13.885232782268
7	15	14	13.987373048679
7	16	15	13.890608048609
7	17	16	13.887004709987
7	18	17	13.926980708602
7	19	18	13.89086526999
7	20	19	13.965056618985
7	21	20	13.946692067499
7	22	21	13.097137451398
7	23	22	11.939132677032
7	24	23	7.4783001788439
7	25	24	7.8592269216425
7	26	25	9.5749213322898
7	27	26	11.610942506126
7	28	27	13.581243869506
7	29	28	13.973211987913
7	30	29	13.918392209036
7	31	30	13.928662607018
7	32	31	13.985277111761
7	33	32	13.95532245066
7	34	33	13.938708755139
7	35	34	13.908545650935
7	36	35	13.927478809105
7	37	36	13.897819017794
7	38	37	13.989504252097
7	39	38	13.94374062394
7	40	39	13.903882643976
7	41	40	13.969130632835
7	42	41	13.884234787642
7	43	42	13.881978327318
7	44	43	13.927070145076
7	45	44	13.922745489741
7	46	45	13.95273740395
7	47	46	13.968270483359
7	48	47	13.918685564972
7	49	48	13.921468284922
7	50	49	13.897015957548
7	51	50	13.964752228069
7	52	51	13.91147568828
7	53	52	13.974545761354
7	54	53	13.965476403411
7	55	54	13.989670229855
7	56	55	13.951804798429
7	57	56	13.892850009208
7	58	57	13.958218119799
7	59	58	13.933717581006
7	60	59	13.982012811573
7	61	60	13.954506225567
7	62	61	13.954468280503
7	63	62	13.914126337939
7	64	63	13.998578815588
7	65	64	13.932968401979
7	66	65	13.954534002345
7	67	66	13.957377178506
7	68	67	13.932528918332
7	69	68	13.977439161665
7	70	69	13.873707558191
7	71	70	13.945779315263
7	72	71	13.942668949808
7	73	72	13.91575948562
7	74	73	13.907857767178
7	76	74	11.509649644586
7	77	75	8.354934886828
7	78	76	5.5437759062738
7	79	77	3.307407476074
7	80	78	1.6348540751313
7	81	79	0.71722348573033
7	82	80	0.25744643425691
7	83	81	0.096330583691781
7	84	82	0.033582834564042
7	85	83	0.012074018451278
7	86	84	0.0044146382852531
7	203	85	0.0015233755870791
7	204	86	0.00054909975708676
7	2052	87	0.00020074254418819
7	2053	88	7.1398246478238e-05
7	6759	89	2.5249602854094e-05
7	6760	90	0
7	11694	91	0
7	11695	92	0
7	16483	93	0
7	16484	94	0
7	21521	95	0
7	21522	96	0
7	26375	97	0
7	26376	98	0
7	31210	99	0
7	31211	100	0
7	36113	101	0
7	36114	102	0
7	41145	103	0
7	41147	104	0
7	46207	105	0
7	46208	106	0
7	51187	107	0
7	51188	108	0
7	55952	109	0
7	55953	110	0
7	60648	111	0
7	60649	112	0
7	65610	113	0
7	65611	114	0
7	70428	115	0
7	70429	116	0
7	75463	117	0
7	75464	118	0
7	80452	119	0
7	80453	120	0
7	85653	121	0
7	85654	122	0
7	90744	123	0
7	90746	124	1.0342890448911
7	96036	125	2.9877881705766
7	96037	126	4.8093144381847
7	101663	127	6.8172159011895
7	101664	128	8.7690167979874
7	107396	129	10.599383906506
7	107397	130	12.630911214417
7	115322	131	13.911355651631
7	115323	132	13.959096302334
7	124116	133	13.985669557508
7	124118	134	13.912786148109
7	133536	135	13.880683887878
7	133537	136	13.921652116431
7	143209	137	13.904044170342
7	143210	138	13.928399279253
7	153102	139	13.947232982973
7	153103	140	13.957098587838
7	163378	141	13.872669367229
7	163379	142	13.988834063003
7	174183	143	13.962365872057
7	174184	144	13.978590016267
7	185140	145	13.996544766314
7	185141	146	13.909791962707
7	196319	147	13.955426083545
7	196320	148	13.916719595476
7	207950	149	13.96472714375
7	207951	150	13.96898798909
7	219608	151	13.902139999291
7	219609	152	13.980534003156
7	231348	153	13.976162572829
7	231350	154	13.902045026864
7	243520	155	13.998268041729
7	243521	156	13.981719435903
7	256520	157	13.904254397955
7	256521	158	13.91068194794
7	269967	159	13.901592570813
7	270153	160	13.871256113877
7	284168	161	13.9870051032
7	286549	162	13.963580676371
7	300380	163	13.94083829636
7	309081	164	13.980116114989
7	322835	165	13.977826093403
7	338322	166	13.954251742228
7	352370	167	13.894492452065
7	367817	168	13.893317757975
7	381000	169	13.907786323659
7	397297	170	13.910502062014
7	410071	171	13.881678228341
7	426147	172	13.899310339873
7	438206	173	13.872349197764
7	454551	174	13.895146320874
7	465900	175	13.975084472168
7	483186	176	13.915615806044
7	493773	177	13.983601140513
7	511514	178	13.901822753502
7	521381	179	13.971918848483
7	539984	180	13.912339184245
7	549033	181	13.870446349455
7	568292	182	13.998481679212
7	575964	183	13.912870613218
7	595626	184	13.92431177363
7	600391	185	13.926093731704
7	622281	186	13.889407378656
7	627223	187	13.898609422178
7	647931	188	13.87051688333
7	651252	189	13.936442787913
7	669909	190	13.89682933182
7	674676	191	13.970138380199
7	691991	192	13.973099016175
7	695353	193	13.908015014287
7	714407	194	13.918955934704
7	716836	195	13.966930401616
7	736644	196	13.90251553925
7	737431	197	13.987379807248
7	757431	198	13.98279741534
7	758037	199	13.89612662347
7	777629	200	13.879178036863
6	5	4	1578.4506684253
6	6	5	1579.5537930429
6	7	6	1581.4165868293
6	8	7	1586.3131998433
6	9	8	1592.5493268352
6	10	9	1600.0762428036
6	11	10	1608.9662610246
6	12	11	1618.8381252186
6	13	12	1628.7265753681
6	14	13	1638.6555796713
6	15	14	1648.8046840783
6	16	15	1660.6325348346
6	17	16	1673.301875555
6	18	17	1682.2138796467
6	19	18	1691.5459182626
6	20	19	1695.5099147679
6	21	20	1697.3308411958
6	22	21	1698.6335971011
6	23	22	1699.8391930545
6	24	23	1700.7320023719
6	25	24	1701.2941834759
6	26	25	1708.3978488175
6	27	26	1718.9439634858
6	28	27	1731.5308475178
6	29	28	1745.2985167308
6	30	29	1759.1189484736
6	31	30	1773.033284259
6	32	31	1786.9263172904
6	33	32	1800.8424062571
6	34	33	1814.7415532097
6	35	34	1828.6279946407
6	36	35	1842.5211894047
6	37	36	1856.4504067414
6	38	37	1870.362115399
6	39	38	1884.2511058366
6	40	39	1898.150578063
6	41	40	1912.0449035605
6	42	41	1925.9381259941
6	43	42	1939.8457802581
6	44	43	1953.7382693188
6	45	44	1967.6194902081
6	46	45	1981.5164272105
6	47	46	1995.4064328251
6	48	47	2009.2884140396
6	49	48	2023.165334505
6	50	49	2037.0672076773
6	51	50	2050.942565321
6	52	51	2064.8483957723
6	53	52	2078.754013543
6	54	53	2092.6537938379
6	55	54	2105.6893007364
6	56	55	2115.3934075218
6	57	56	2120.5034639826
6	58	57	2120.5707901428
6	59	58	2120.100904949
6	60	59	2119.6305731572
6	61	60	2119.160115581
6	62	61	2118.6901442679
6	63	62	2118.2197627351
6	64	63	2117.748758764
6	65	64	2117.2785659507
6	66	65	2116.8085654471
6	67	66	2116.3381540589
6	68	67	2115.8679307271
6	69	68	2115.0734324455
6	70	69	2113.117474094
6	71	70	2111.1620108271
6	72	71	2106.8134566117
6	73	72	2102.3345389208
6	74	73	2097.6439806372
6	76	74	2091.0703529529
6	77	75	2086.1090495121
6	78	76	2082.6641800171
6	79	77	2080.516496351
6	80	78	2079.3426997084
6	81	79	2078.8017351869
6	82	80	2078.584299556
6	83	81	2078.5050025163
6	84	82	2078.4764596215
6	85	83	2078.4662605636
6	86	84	2078.4626007918
6	203	85	2078.4613038972
6	204	86	2078.4608360277
6	2052	87	2078.4606658332
6	2053	88	2078.4606050653
6	6759	89	2078.4605832752
6	6760	90	2078.4605760388
6	11694	91	2078.4605760388
6	11695	92	2078.4605760388
6	16483	93	2078.4605760388
6	16484	94	2078.4605760388
6	21521	95	2078.4605760388
6	21522	96	2078.4605760388
6	26375	97	2078.4605760388
6	26376	98	2078.4605760388
6	31210	99	2078.4605760388
6	31211	100	2078.4605760388
6	36113	101	2078.4605760388
6	36114	102	2078.4605760388
6	41145	103	2078.4605760388
6	41147	104	2078.4605760388
6	46207	105	2078.4605760388
6	46208	106	2078.4605760388
6	51187	107	2078.4605760388
6	51188	108	2078.4605760388
6	55952	109	2078.4605760388
6	55953	110	2078.4605760388
6	60648	111	2078.4605760388
6	60649	112	2078.4605760388
6	65610	113	2078.4605760388
6	65611	114	2078.4605760388
6	70428	115	2078.4605760388
6	70429	116	2078.4605760388
6	75463	117	2078.4605760388
6	75464	118	2078.4605760388
6	80452	119	2078.4605760388
6	80453	120	2078.4605760388
6	85653	121	2078.4605760388
6	85654	122	2078.4605760388
6	90744	123	2078.4605760388
6	90746	124	2078.249014724
6	96036	125	2077.1949394597
6	96037	126	2075.0013293456
6	101663	127	2070.9076127177
6	101664	128	2067.4490347402
6	107396	129	2060.285861616
6	107397	130	2051.6777054612
6	115322	131	2041.8297830392
6	115323	132	2031.6702941926
6	124116	133	2021.493287323
6	124118	134	2011.3364173146
6	133536	135	2001.1795974905
6	133537	136	1991.0258607436
6	143209	137	1980.8674998162
6	143210	138	1971.1253783628
6	153102	139	1961.401257514
6	153103	140	1951.691304503
6	163378	141	1941.9867431251
6	163379	142	1932.2774640145
6	174183	143	1922.5602575596
6	174184	144	1912.8568496592
6	185140	145	1903.125578667
6	185141	146	1893.3977376623
6	196319	147	1883.6910427129
6	196320	148	1873.9732012954
6	207950	149	1864.0175983226
6	207951	150	1854.0424315697
6	219608	151	1844.0722908285
6	219609	152	1834.1094827102
6	231348	153	1824.1407492319
6	231350	154	1814.1691042008
6	243520	155	1804.1947407657
6	243521	156	1794.2283071671
6	256520	157	1784.2573344037
6	256521	158	1774.2885577334
6	269967	159	1764.5284130014
6	270153	160	1754.9370631101
6	284168	161	1745.3352343775
6	286549	162	1735.6203876995
6	300380	163	1725.8595111202
6	309081	164	1716.1019093618
6	322835	165	1706.3441011505
6	338322	166	1696.5910644149
6	352370	167	1686.8490845831
6	367817	168	1677.1169436853
6	381000	169	1667.3633353235
6	397297	170	1657.6143843699
6	410071	171	1647.8626336399
6	426147	172	1638.1156774191
6	438206	173	1628.3575107958
6	454551	174	1618.6065200334
6	465900	175	1608.862050565
6	483186	176	1599.1115391506
6	493773	177	1589.3419892481
6	511514	178	1579.6036810968
6	521381	179	1569.8384668855
6	539984	180	1560.075965533
6	549033	181	1550.3315559505
6	568292	182	1540.4422861543
6	575964	183	1530.5615074448
6	595626	184	1520.6792300269
6	600391	185	1510.801277793
6	622281	186	1500.9203884043
6	627223	187	1491.5936991926
6	647931	188	1482.4874965642
6	651252	189	1473.3747092662
6	669909	190	1464.2855508653
6	674676	191	1455.1737939268
6	691991	192	1446.5435439739
6	695353	193	1438.5354815945
6	714407	194	1430.5276779355
6	716836	195	1422.515062049
6	736644	196	1414.4954506345
6	737431	197	1407.6336895786
6	757431	198	1401.7091985373
6	758037	199	1395.7814483019
6	777629	200	1389.8573275432
5	5	4	2414.8767583254
5	6	5	2411.8725636174
5	7	6	2407.2970525089
5	8	7	2402.4626210862
5	9	8	2396.3056860371
5	10	9	2388.8743536096
5	11	10	2380.097228827
5	12	11	2370.3507264333
5	13	12	2360.5878487076
5	14	13	2350.7849318213
5	15	14	2341.2418729237
5	16	15	2334.6305580324
5	17	16	2337.3467480277
5	18	17	2348.0519014368
5	19	18	2358.3998493504
5	20	19	2371.2788021446
5	21	20	2385.0887639745
5	22	21	2398.4985461925
5	23	22	2411.2485283293
5	24	23	2420.6905829484
5	25	24	2427.6440450998
5	26	25	2431.3031180431
5	27	26	2432.9057471878
5	28	27	2434.8184996871
5	29	28	2436.9106889558
5	30	29	2438.5031214217
5	31	30	2439.359314087
5	32	31	2440.3695716034
5	33	32	2441.3815056744
5	34	33	2442.392207776
5	35	34	2443.4019859718
5	36	35	2444.4122552489
5	37	36	2445.4251439738
5	38	37	2446.4367595227
5	39	38	2447.4467230743
5	40	39	2448.4574488286
5	41	40	2449.467800329
5	42	41	2450.4780716181
5	43	42	2449.7461704329
5	44	43	2448.6331060936
5	45	44	2447.5209445587
5	46	45	2446.407523851
5	47	46	2445.2946584851
5	48	47	2444.1824360332
5	49	48	2443.0706190476
5	50	49	2441.9568028547
5	51	50	2440.8451110823
5	52	51	2439.8503503047
5	53	52	2438.9091742415
5	54	53	2438.2310626655
5	55	54	2433.9050446447
5	56	55	2424.21615465
5	57	56	2411.3460908785
5	58	57	2397.4706148925
5	59	58	2383.5587488873
5	60	59	2369.633660475
5	61	60	2355.7048479554
5	62	61	2341.7904321874
5	63	62	2327.8638711022
5	64	63	2313.9188814831
5	65	64	2299.9979078089
5	66	65	2286.0826278217
5	67	66	2272.1551827891
5	68	67	2258.2333055256
5	69	68	2244.3319301521
5	70	69	2230.5388995206
5	71	70	2216.7493601282
5	72	71	2203.5089906314
5	73	72	2190.3028214657
5	74	73	2177.2175397498
5	76	74	2166.0508945999
5	77	75	2157.6231104804
5	78	76	2151.7712981963
5	79	77	2148.1230201763
5	80	78	2146.1290875688
5	81	79	2145.2101491778
5	82	80	2144.8407904832
5	83	81	2144.7060883162
5	84	82	2144.6576023959
5	85	83	2144.6402772203
5	86	84	2144.6340603527
5	203	85	2144.6318573126
5	204	86	2144.6310625414
5	2052	87	2144.6307734308
5	2053	88	2144.630670205
5	6759	89	2144.6306331899
5	6760	90	2144.6306208968
5	11694	91	2144.6306208968
5	11695	92	2144.6306208968
5	16483	93	2144.6306208968
5	16484	94	2144.6306208968
5	21521	95	2144.6306208968
5	21522	96	2144.6306208968
5	26375	97	2144.6306208968
5	26376	98	2144.6306208968
5	31210	99	2144.6306208968
5	31211	100	2144.6306208968
5	36113	101	2144.6306208968
5	36114	102	2144.6306208968
5	41145	103	2144.6306208968
5	41147	104	2144.6306208968
5	46207	105	2144.6306208968
5	46208	106	2144.6306208968
5	51187	107	2144.6306208968
5	51188	108	2144.6306208968
5	55952	109	2144.6306208968
5	55953	110	2144.6306208968
5	60648	111	2144.6306208968
5	60649	112	2144.6306208968
5	65610	113	2144.6306208968
5	65611	114	2144.6306208968
5	70428	115	2144.6306208968
5	70429	116	2144.6306208968
5	75463	117	2144.6306208968
5	75464	118	2144.6306208968
5	80452	119	2144.6306208968
5	80453	120	2144.6306208968
5	85653	121	2144.6306208968
5	85654	122	2144.6306208968
5	90744	123	2144.6306208968
5	90746	124	2144.271240926
5	96036	125	2142.4806794574
5	96037	126	2139.1421320778
5	101663	127	2134.9060802547
5	101664	128	2127.1476351008
5	107396	129	2120.4367071232
5	107397	130	2112.3720247579
5	115322	131	2103.1458484584
5	115323	132	2093.6277764036
5	124116	133	2084.0932923211
5	124118	134	2074.5776737646
5	133536	135	2065.0621022239
5	133537	136	2055.5494191108
5	143209	137	2046.0324037642
5	143210	138	2036.0468948298
5	153102	139	2026.0433869272
5	153103	140	2016.0544539228
5	163378	141	2006.0710674602
5	163379	142	1996.0828277187
5	174183	143	1986.0864328698
5	174184	144	1976.1042330253
5	185140	145	1966.0933695459
5	185141	146	1956.0860346018
5	196319	147	1946.1004532676
5	196320	148	1936.1034052128
5	207950	149	1926.3508274694
5	207951	150	1916.6163277385
5	219608	151	1906.886732759
5	219609	152	1897.1642934916
5	231348	153	1887.4360718232
5	231350	154	1877.7050088475
5	243520	155	1867.9712930534
5	243521	156	1858.2453157756
5	256520	157	1848.5149088484
5	256521	158	1838.7866450298
5	269967	159	1828.8663656547
5	270153	160	1818.7655445216
5	284168	161	1808.6536879344
5	286549	162	1798.6862498338
5	300380	163	1788.7263413786
5	309081	164	1778.7697745202
5	322835	165	1768.812996999
5	338322	166	1758.8610882476
5	352370	167	1748.9204618596
5	367817	168	1738.9898750285
5	381000	169	1729.0373829948
5	397297	170	1719.0896433379
5	410071	171	1709.1390468152
5	426147	172	1699.193342565
5	438206	173	1689.2361993233
5	454551	174	1679.2863782648
5	465900	175	1669.3432114742
5	483186	176	1659.3938795371
5	493773	177	1649.4251209022
5	511514	178	1639.4882410626
5	521381	179	1629.5239065279
5	539984	180	1619.5623401684
5	549033	181	1609.7731259873
5	568292	182	1599.9764395078
5	575964	183	1590.1881646215
5	595626	184	1580.3984050575
5	600391	185	1570.6129301849
5	622281	186	1560.8245456557
5	627223	187	1550.4980561173
5	647931	188	1539.9694828199
5	651252	189	1529.4332963421
5	669909	190	1518.9244295466
5	674676	191	1508.3894343675
5	691991	192	1497.478323005
5	695353	193	1486.1070794987
5	714407	194	1474.7362033684
5	716836	195	1463.3584939971
5	736644	196	1451.9708511569
5	737431	197	1439.9031308525
5	757431	198	1427.3368582649
5	758037	199	1414.7636726915
5	777629	200	1402.1981854999
54	34	33	4.2536079204924
54	35	34	5.6097873961696
54	36	35	7.0608471949256
54	37	36	8.1784534517424
54	38	37	7.3049589891909
54	39	38	1.6992497596727
54	40	39	2.2877903665614
54	41	40	1.720418770862
54	42	41	2.0573732731205
54	43	42	2.0993884002122
54	44	43	2.0329893746275
54	45	44	2.1511492771089
54	46	45	2.055763151868
54	47	46	0.973
54	48	47	0.973
54	49	48	0.973
54	50	49	0.973
54	51	50	3.6079232311225
54	52	51	0.973
54	53	52	6.1408803435004
54	54	53	6.8216399591446
54	55	54	8.8976355453378
54	56	55	5.6108343781967
54	57	56	2.0228631444349
54	58	57	2.0144359520848
54	59	58	2.1802488842147
54	60	59	1.7929748574303
54	61	60	1.9323127238067
54	62	61	2.4285853961764
54	63	62	1.7383967094798
54	64	63	2.1287188156895
54	65	64	1.8703465381485
54	66	65	2.2357639473273
54	67	66	1.9959696560654
54	68	67	2.1062086218696
54	69	68	1.3241384822667
54	70	69	1.1284955882157
54	71	70	1.5228391538703
54	72	71	1.6433849183498
54	73	72	1.3273117625201
54	74	73	1.8141211477603
54	76	74	1.5458920418585
54	77	75	1.6202891617171
54	78	76	1.897663472598
54	79	77	2.616213757607
54	80	78	3.262736721356
54	81	79	2.0681394624811
54	82	80	2.3223282334101
54	83	81	1.9779944991034
54	84	82	2.4988873667324
54	85	83	2.0646939849653
54	86	84	2.2752965216503
54	203	85	1.8791737221509
54	204	86	2.6451846586298
54	2052	87	1.7077726264306
54	2053	88	2.306092009507
54	6759	89	1.9721476550744
54	6760	90	1.8670042218452
54	11694	91	2.4734898682155
54	11695	92	1.8078327502787
54	16483	93	1.8831220945229
54	16484	94	2.1044118147842
54	21521	95	2.0686981980019
54	21522	96	0.973
54	26375	97	0.973
54	26376	98	0.973
54	31210	99	0.973
54	31211	100	0.973
54	36113	101	0.973
54	36114	102	0.973
54	41145	103	0.973
54	41147	104	0.973
54	46207	105	0.973
54	46208	106	0.973
54	51187	107	0.973
54	51188	108	0.973
54	55952	109	0.973
54	55953	110	0.973
54	60648	111	0.973
54	60649	112	0.973
54	65610	113	0.973
54	65611	114	0.973
54	70428	115	0.973
54	70429	116	0.973
54	75463	117	0.973
54	75464	118	0.973
54	80452	119	0.973
54	80453	120	0.973
54	85653	121	0.973
54	85654	122	0.973
54	90744	123	0.973
54	90746	124	0.973
54	96036	125	0.973
54	96037	126	0.973
54	101663	127	0.973
54	101664	128	0.973
54	107396	129	0.973
54	107397	130	0.973
54	115322	131	0.973
54	115323	132	0.973
54	124116	133	0.973
54	124118	134	0.973
54	133536	135	0.973
54	133537	136	0.973
54	143209	137	0.973
54	143210	138	0.973
54	153102	139	0.973
54	153103	140	0.973
54	163378	141	0.973
54	163379	142	0.973
54	174183	143	0.973
54	174184	144	0.973
54	185140	145	0.973
54	185141	146	0.973
54	196319	147	0.973
54	196320	148	0.973
54	207950	149	0.973
54	207951	150	0.973
54	219608	151	0.973
54	219609	152	0.973
54	231348	153	0.973
54	231350	154	2.5855247219641
54	243520	155	3.0979507992076
54	243521	156	4.8894608007389
54	256520	157	5.0628092009041
54	256521	158	6.8750112153451
54	269967	159	7.1653158470268
54	270153	160	0.973
54	284168	161	0.973
54	286549	162	5.9961596744775
54	300380	163	7.3907334529567
54	309081	164	8.019399225132
54	322835	165	4.8361097336246
54	338322	166	1.9993592434857
54	352370	167	1.9692941742878
54	367817	168	1.883994577797
54	381000	169	2.3989245881726
54	397297	170	1.929049392185
54	410071	171	1.9155894560445
54	426147	172	2.0793377346984
54	438206	173	2.1424887739092
54	454551	174	1.8242017117372
54	465900	175	1.9467567216298
54	483186	176	2.3907643687762
54	493773	177	2.0428490680194
54	511514	178	1.6762040938815
54	521381	179	2.1028127586257
54	539984	180	2.2698610314043
54	549033	181	1.6977189989049
54	568292	182	2.0560745656421
54	575964	183	1.9821825915261
54	595626	184	2.179442106795
54	600391	185	2.1161709351955
54	622281	186	2.0858783505202
54	627223	187	2.002830890754
54	647931	188	2.166576002512
54	651252	189	1.6926931455633
54	669909	190	2.3703948314325
54	674676	191	1.6807202649814
54	691991	192	2.1533643243616
54	695353	193	2.1962392981265
54	714407	194	2.1012294171028
54	716836	195	1.9317410225511
54	736644	196	1.7964857643991
54	737431	197	2.0464977844689
54	757431	198	2.2028316151508
54	758037	199	2.1914853645804
54	777629	200	1.9564756956451
53	34	33	1.919052537987
53	35	34	2.0588494184264
53	36	35	2.1508449542872
53	37	36	2.1012515758467
53	38	37	1.5625933768202
53	39	38	-0.098074592147022
53	40	39	0.075057929600588
53	41	40	-0.091362564552108
53	42	41	0.0091364305536263
53	43	42	0.02102372963447
53	44	43	0.0011712541035376
53	45	44	0.035270501340275
53	46	45	0.0066709692869331
53	47	46	-1.1794783107465
53	48	47	-1.5819311842988
53	49	48	-0.46604447037265
53	50	49	-1.9950374970953
53	51	50	0.84762124108712
53	52	51	-3.1158763178945
53	53	52	2.186694013516
53	54	53	1.9863601906132
53	55	54	2.2461710704397
53	56	55	1.0650885919709
53	57	56	-0.002837933443951
53	58	57	-0.0051911328174175
53	59	58	0.042761165187693
53	60	59	-0.070449747797102
53	61	60	-0.028071860093622
53	62	61	0.11582862532697
53	63	62	-0.086761498509439
53	64	63	0.028778754263184
53	65	64	-0.046897563713138
53	66	65	0.060194186484441
53	67	66	-0.010825998815708
53	68	67	0.021315540712804
53	69	68	-0.20800924624189
53	70	69	-0.26418335118253
53	71	70	-0.14007250511563
53	72	71	-0.10031356808502
53	73	72	-0.19632924058458
53	74	73	-0.040428343278315
53	76	74	-0.12343096797561
53	77	75	-0.097265366439816
53	78	76	-0.0070514669698323
53	79	77	0.21597549298121
53	80	78	0.39794488924487
53	81	79	0.027003840911965
53	82	80	0.10171905629963
53	83	81	-0.0038195993458974
53	84	82	0.14981991164777
53	85	83	0.017464424627537
53	86	84	0.078473019028761
53	203	85	-0.039841987904406
53	204	86	0.18366198651802
53	2052	87	-0.093783901142803
53	2053	88	0.082897813544175
53	6759	89	-0.0163274439548
53	6760	90	-0.046501240094198
53	11694	91	0.13019274685669
53	11695	92	-0.065899205789332
53	16483	93	-0.04226956740052
53	16484	94	0.023247005890322
53	21521	95	0.012189692013054
53	21522	96	-0.61315461121882
53	26375	97	-1.3338225646627
53	26376	98	-1.4651114154837
53	31210	99	-1.4272819398761
53	31211	100	-1.2162127276474
53	36113	101	-1.3540939220106
53	36114	102	-1.3279383262121
53	41145	103	-1.2943016858592
53	41147	104	-3.8607612925128
53	46207	105	0
53	46208	106	0
53	51187	107	0
53	51188	108	0
53	55952	109	0
53	55953	110	0
53	60648	111	0
53	60649	112	0
53	65610	113	0
53	65611	114	0
53	70428	115	0
53	70429	116	0
53	75463	117	0
53	75464	118	0
53	80452	119	0
[...]
49	595626	184	2.0651817074549
49	600391	185	1.9545344754529
49	622281	186	2.2091145745174
49	627223	187	1.8013440099128
49	647931	188	2.4249374488968
49	651252	189	1.9184281269048
49	669909	190	1.888597329173
49	674676	191	2.1953914989129
49	691991	192	1.8850386923897
49	695353	193	2.235049605374
49	714407	194	1.7709023144725
49	716836	195	2.118413106243
49	736644	196	1.9374236001925
49	737431	197	2.1079000221874
49	757431	198	2.2061866692594
49	758037	199	1.9785007159156
49	777629	200	2.1799464901115
48	31	30	2.1160064154235
48	32	31	1.925359868051
48	33	32	2.0711629601824
48	34	33	1.9594706285931
48	35	34	1.7342162803118
48	36	35	0.21524327190784
48	37	36	0.07235160667682
48	38	37	0.00325082491152
48	39	38	-0.049914420561398
48	40	39	-0.058014574118424
48	41	40	-0.6624555435558
48	42	41	-0.6623661880499
48	43	42	-0.38995801181226
48	44	43	-0.47021385551568
48	45	44	-0.14630047559948
48	46	45	-1.8307768515658
48	47	46	-0.14503034690231
48	48	47	-1.7645574945927
48	49	48	1.0473265193394
48	50	49	-2.1823455372089
48	51	50	2.1636936872965
48	52	51	2.1029672629572
48	53	52	1.9756188266189
48	54	53	0.9802875911224
48	55	54	0.068536760106216
48	56	55	-0.05880722823087
48	57	56	0.036856680314521
48	58	57	-0.036578740226105
48	59	58	-0.031446959750539
48	60	59	-0.19738995445817
48	61	60	-0.1256223552388
48	62	61	-0.2308695422341
48	63	62	-0.2060114680539
48	64	63	-0.12021136399281
48	65	64	-0.039295833455043
48	66	65	-0.15038987664831
48	67	66	0.023492317434437
48	68	67	-0.030237328560979
48	69	68	0.064633606100264
48	70	69	-0.076874979987599
48	71	70	-0.013147008174478
48	72	71	-0.036473707671837
48	73	72	0.044353525819444
48	74	73	-0.028581897664116
48	76	74	-0.085937978400894
48	77	75	-0.056792106027153
48	78	76	0.16162217023882
48	79	77	0.21682610792629
48	80	78	0.57410377389803
48	81	79	0.13017127803733
48	82	80	0.0057772370090721
48	83	81	-0.023265611673709
48	84	82	0.077847422089501
48	85	83	0.036244384361577
48	86	84	0.0051495857441335
48	203	85	0.16427054540412
48	204	86	-0.085222447307585
48	2052	87	0.077179613663635
48	2053	88	-0.015225312239291
48	6759	89	-0.046092607451136
48	6760	90	-0.005017313142762
48	11694	91	0.097298060036719
48	11695	92	-0.10481932101356
48	16483	93	0.10389726282828
48	16484	94	-0.020574594323662
48	21521	95	0.029836936539354
48	21522	96	-0.90745764305902
48	26375	97	-1.980805199894
48	26376	98	-1.7384289232344
48	31210	99	-1.6176107526326
48	31211	100	-1.5797083764592
48	36113	101	-1.3739218033218
48	36114	102	-1.3045784300383
48	41145	103	-1.245071159445
48	41147	104	-0.94045808589919
48	46207	105	-0.63170959600544
48	46208	106	-0.35421736303914
48	51187	107	-0.17607358038484
48	51188	108	-0.074166935046954
48	55952	109	-0.033404789680645
48	55953	110	-0.013597183940222
48	60648	111	-0.0059561985291128
48	60649	112	-0.002306925615158
48	65610	113	-0.0010043006717283
48	65611	114	-0.00038621477642832
48	70428	115	-0.00016021992384959
48	70429	116	-6.230589423425e-05
48	75463	117	-2.2762431274601e-05
48	75464	118	-1.2670923665467e-05
48	80452	119	0
48	80453	120	0
48	85653	121	0
48	85654	122	0
48	90744	123	0
48	90746	124	1.0245135300139e-05
48	96036	125	2.1291204086554e-05
48	96037	126	0.0018003120650503
48	101663	127	0.028118321090835
48	101664	128	0.18148398142564
48	107396	129	0.66521285908445
48	107397	130	1.0477838382199
48	115322	131	1.2636879346837
48	115323	132	0.90480872923711
48	124116	133	0.8042246845547
48	124118	134	1.3654645025609
48	133536	135	0.45269390846714
48	133537	136	-0.20447124030161
48	143209	137	1.0482147011653
48	143210	138	0.34524758642074
48	153102	139	2.0179705675365
48	153103	140	1.8411612342391
48	163378	141	1.9634301102394
48	163379	142	0.23596415756261
48	174183	143	-0.091609625364654
48	174184	144	0.11077572962968
48	185140	145	-0.073515849383547
48	185141	146	-0.033131231202278
48	196319	147	0.028097851513884
48	196320	148	0.021327206366696
48	207950	149	0.048953633247875
48	207951	150	-0.031632970247884
48	219608	151	-0.025026495829223
48	219609	152	0.077117725033313
48	231348	153	-0.0092011989536704
48	231350	154	-0.078794078656937
48	243520	155	0.024585243896581
48	243521	156	-0.010444945392665
48	256520	157	-0.021948890199418
48	256521	158	0.058756059356964
48	269967	159	-0.077255526203661
48	270153	160	0.030275727284605
48	284168	161	-0.038819358560723
48	286549	162	0.025851499121638
48	300380	163	0.0031615623272945
48	309081	164	0.026758094122634
48	322835	165	0.050446404165122
48	338322	166	-0.0061508488561959
48	352370	167	-0.053666396685875
48	367817	168	0.0075800454756241
48	381000	169	0.031169365621171
48	397297	170	-0.079608570181298
48	410071	171	0.0067579072294759
48	426147	172	0.044260795556474
48	438206	173	-0.054991326790768
48	454551	174	0.0042685690335933
48	465900	175	0.052864239728077
48	483186	176	-0.056015794188715
48	493773	177	0.076961685072165
48	511514	178	-0.014743055857252
48	521381	179	0.034660563573707
48	539984	180	-0.039198336598929
48	549033	181	-0.049482793242206
48	568292	182	0.045724828476088
48	575964	183	-0.026944958483801
48	595626	184	0.010551232658326
48	600391	185	-0.021823018519207
48	622281	186	0.052435229409021
48	627223	187	-0.067209543860518
48	647931	188	0.11482526557986
48	651252	189	-0.034444927768781
48	669909	190	-0.04216265322175
48	674676	191	0.047717498298736
48	691991	192	-0.043343270029874
48	695353	193	0.058963479674421
48	714407	194	-0.076925732640083
48	716836	195	0.025976428650319
48	736644	196	-0.027180679608136
48	737431	197	0.022978470162489
48	757431	198	0.050551027508918
48	758037	199	-0.016583131244406
48	777629	200	0.04191168575082
47	30	29	3.8828872453123
47	31	30	5.9988936607358
47	32	31	7.9242535287868
47	33	32	9.9954164889692
47	34	33	11.954887117562
47	35	34	13.689103397874
47	36	35	13.904346669782
47	37	36	13.976698276459
47	38	37	13.97994910137
47	39	38	13.930034680809
47	40	39	13.87202010669
47	41	40	13.209564563135
47	42	41	12.547198375085
47	43	42	12.157240363273
47	44	43	11.687026507757
47	45	44	11.540726032157
47	46	45	9.7099491805915
47	47	46	9.5649188336892
47	48	47	7.8003613390965
47	49	48	8.8476878584359
47	50	49	6.665342321227
47	51	50	8.8290360085235
47	52	51	10.932003271481
47	53	52	12.9076220981
47	54	53	13.887909689222
47	55	54	13.956446449328
47	56	55	13.897639221097
47	57	56	13.934495901412
47	58	57	13.897917161186
47	59	58	13.866470201435
47	60	59	13.669080246977
47	61	60	13.543457891738
47	62	61	13.312588349504
47	63	62	13.10657688145
47	64	63	12.986365517457
47	65	64	12.947069684002
47	66	65	12.796679807354
47	67	66	12.820172124789
47	68	67	12.789934796228
47	69	68	12.854568402328
47	70	69	12.77769342234
47	71	70	12.764546414166
47	72	71	12.728072706494
47	73	72	12.772426232313
47	74	73	12.743844334649
47	76	74	12.657906356248
47	77	75	12.601114250221
47	78	76	12.76273642046
47	79	77	12.979562528386
47	80	78	13.553666302284
47	81	79	13.683837580322
47	82	80	13.689614817331
47	83	81	13.666349205657
47	84	82	13.744196627746
47	85	83	13.780441012108
47	86	84	13.785590597852
47	203	85	13.949861143256
47	204	86	13.864638695949
47	2052	87	13.941818309612
47	2053	88	13.926592997373
47	6759	89	13.880500389922
47	6760	90	13.875483076779
47	11694	91	13.972781136816
47	11695	92	13.867961815802
47	16483	93	13.971859078631
47	16484	94	13.951284484307
47	21521	95	13.981121420846
47	21522	96	13.073663777787
47	26375	97	11.092858577893
47	26376	98	9.3544296546589
47	31210	99	7.7368189020262
47	31211	100	6.157110525567
47	36113	101	4.7831887222452
47	36114	102	3.4786102922069
47	41145	103	2.2335391327619
47	41147	104	1.2930810468627
47	46207	105	0.66137145085725
47	46208	106	0.30715408781811
47	51187	107	0.13108050743327
47	51188	108	0.056913572386319
47	55952	109	0.023508782705673
47	55953	110	0.0099115987654513
47	60648	111	0.0039554002363385
47	60649	112	0.0016484746211805
47	65610	113	0.00064417394945223
47	65611	114	0.00025795917302391
47	70428	115	9.7739249174318e-05
47	70429	116	3.5433354940068e-05
47	75463	117	1.2670923665467e-05
47	75464	118	0
47	80452	119	0
47	80453	120	0
47	85653	121	0
47	85654	122	0
47	90744	123	0
47	90746	124	1.0245135300139e-05
47	96036	125	3.1536339386693e-05
47	96037	126	0.001831848404437
47	101663	127	0.029950169495272
47	101664	128	0.21143415092091
47	107396	129	0.87664701000536
47	107397	130	1.9244308482253
47	115322	131	3.188118782909
47	115323	132	4.0929275121461
47	124116	133	4.8971521967008
47	124118	134	6.2626166992617
47	133536	135	6.7153106077288
47	133537	136	6.5108393674272
47	143209	137	7.5590540685925
47	143210	138	7.9043016550132
47	153102	139	9.9222722225498
47	153103	140	11.763433456789
47	163378	141	13.726863567028
47	163379	142	13.962827724591
47	174183	143	13.871218099226
47	174184	144	13.981993828856
47	185140	145	13.908477979472
47	185141	146	13.87534674827
47	196319	147	13.903444599784
47	196320	148	13.924771806151
47	207950	149	13.973725439399
47	207951	150	13.942092469151
47	219608	151	13.917065973321
47	219609	152	13.994183698355
47	231348	153	13.984982499401
47	231350	154	13.906188420744
47	243520	155	13.930773664641
47	243521	156	13.920328719248
47	256520	157	13.898379829049
47	256521	158	13.957135888406
47	269967	159	13.879880362202
47	270153	160	13.910156089487
47	284168	161	13.871336730926
47	286549	162	13.897188230047
47	300380	163	13.900349792375
47	309081	164	13.927107886497
47	322835	165	13.977554290663
47	338322	166	13.971403441806
47	352370	167	13.91773704512
47	367817	168	13.925317090596
47	381000	169	13.956486456217
47	397297	170	13.876877886036
47	410071	171	13.883635793265
47	426147	172	13.927896588822
47	438206	173	13.872905262031
47	454551	174	13.877173831065
47	465900	175	13.930038070793
47	483186	176	13.874022276604
47	493773	177	13.950983961676
47	511514	178	13.936240905819
47	521381	179	13.970901469393
47	539984	180	13.931703132794
47	549033	181	13.882220339552
47	568292	182	13.927945168028
47	575964	183	13.901000209544
47	595626	184	13.911551442202
47	600391	185	13.889728423683
47	622281	186	13.942163653092
47	627223	187	13.874954109231
47	647931	188	13.989779374811
47	651252	189	13.955334447043
47	669909	190	13.913171793821
47	674676	191	13.96088929212
47	691991	192	13.91754602209
47	695353	193	13.976509501764
47	714407	194	13.899583769124
47	716836	195	13.925560197774
47	736644	196	13.898379518166
47	737431	197	13.921357988329
47	757431	198	13.971909015838
47	758037	199	13.955325884593
47	777629	200	13.997237570344
46	29	28	1578.4516975414
46	30	29	1579.5134272473
46	31	30	1581.4371518614
46	32	31	1586.4698844142
46	33	32	1592.8892969526
46	34	33	1600.7346143331
46	35	34	1609.8954394953
46	36	35	1619.8010426937
46	37	36	1629.7134084683
46	38	37	1639.630253504
46	39	38	1649.8652177965
46	40	39	1661.9566132678
46	41	40	1673.9279434606
46	42	41	1682.1907477807
46	43	42	1690.4816842517
46	44	43	1694.9792507365
46	45	44	1696.6337821614
46	46	45	1697.8217770569
46	47	46	1698.7076168377
46	48	47	1699.54885648
46	49	48	1700.3335349681
46	50	49	1700.9704685463
46	51	50	1703.8499501906
46	52	51	1713.7175331367
46	53	52	1725.5980357202
46	54	53	1739.1750417827
46	55	54	1752.953718612
46	56	55	1766.8480891688
46	57	56	1780.7543037385
46	58	57	1794.6471531224
46	59	58	1808.5532933818
46	60	59	1822.3324052477
46	61	60	1835.8697147686
46	62	61	1849.1911173435
46	63	62	1862.3827910898
46	64	63	1875.4378973627
46	65	64	1888.44261433
46	66	65	1901.3615401061
46	67	66	1914.1699640714
46	68	67	1926.9834366515
46	69	68	1939.7772534657
46	70	69	1952.5035784729
46	71	70	1965.2263522288
46	72	71	1977.9139218871
46	73	72	1990.5900840452
46	74	73	2003.2453790344
46	76	74	2015.916586969
46	77	75	2028.5679549109
46	78	76	2041.2579743844
46	79	77	2053.9689008836
46	80	78	2067.3676527347
46	81	79	2080.9256506879
46	82	80	2094.5142772133
46	83	81	2107.0752883619
46	84	82	2116.1491530789
46	85	83	2120.7816550871
46	86	84	2120.5329052554
46	203	85	2120.0651134187
46	204	86	2119.5973385489
46	2052	87	2119.1285830624
46	2053	88	2118.6608981416
46	6759	89	2118.1921072919
46	6760	90	2117.7228170857
46	11694	91	2117.2530069137
46	11695	92	2116.7838459862
46	16483	93	2116.3139040796
46	16484	94	2115.8437062465
46	21521	95	2114.9756789273
46	21522	96	2113.0597542105
46	26375	97	2111.3850886244
46	26376	98	2108.5451980159
46	31210	99	2105.8292710902
46	31211	100	2103.6092299381
46	36113	101	2101.8694178183
46	36114	102	2100.5681362515
46	41145	103	2099.6778176753
46	41147	104	2099.1282710126
46	46207	105	2098.8264594888
46	46208	106	2098.6791798193
46	51187	107	2098.6145785013
46	51188	108	2098.5869646287
46	55952	109	2098.5754104899
46	55953	110	2098.5705996472
46	60648	111	2098.5686349906
46	60649	112	2098.5678352285
46	65610	113	2098.5675092908
46	65611	114	2098.5673796935
46	70428	115	2098.56732882
46	70429	116	2098.5673098154
46	75463	117	2098.5673029833
46	75464	118	2098.5673022904
46	80452	119	2098.5673022904
46	80453	120	2098.5673022904
46	85653	121	2098.5673022904
46	85654	122	2098.5673022904
46	90744	123	2098.5673022904
46	90746	124	2098.5673019616
46	96036	125	2098.5672972305
46	96037	126	2098.5671096733
46	101663	127	2098.5631718161
46	101664	128	2098.5286175171
46	107396	129	2098.3587126108
46	107397	130	2097.7084554806
46	115322	131	2096.3897281243
46	115323	132	2094.5081031462
46	124116	133	2092.1071142163
46	124118	134	2089.2508847276
46	133536	135	2086.1112581212
46	133537	136	2082.6849972894
46	143209	137	2078.9580327058
46	143210	138	2075.2679469883
46	153102	139	2068.9635939104
46	153103	140	2061.0083433073
46	163378	141	2051.6277145138
46	163379	142	2041.4563725656
46	174183	143	2031.2856834959
46	174184	144	2021.1146862423
46	185140	145	2010.9451309908
46	185141	146	2000.771755157
46	196319	147	1990.6099683978
46	196320	148	1980.4364133393
46	207950	149	1970.617479424
46	207951	150	1960.9007777153
46	219608	151	1951.1898186663
46	219609	152	1941.4615135314
46	231348	153	1931.7418529699
46	231350	154	1922.0225784583
46	243520	155	1912.3129165769
46	243521	156	1902.6066322615
46	256520	157	1892.870478115
46	256521	158	1883.1661860887
46	269967	159	1873.4563656617
46	270153	160	1863.5557528734
46	284168	161	1853.5732399691
46	286549	162	1843.6110940622
46	300380	163	1833.6288165348
46	309081	164	1823.6513732765
46	322835	165	1813.6810938809
46	338322	166	1803.7034075679
46	352370	167	1793.729052159
46	367817	168	1783.7481147107
46	381000	169	1773.7783290474
46	397297	170	1763.9539865311
46	410071	171	1754.3659278452
46	426147	172	1744.7824437814
46	438206	173	1735.0763125531
46	454551	174	1725.3256674074
46	465900	175	1715.5812822888
46	483186	176	1705.8230948774
46	493773	177	1696.0753820678
46	511514	178	1686.3224959858
46	521381	179	1676.5734080039
46	539984	180	1666.8167029377
46	549033	181	1657.0682920134
46	568292	182	1647.3029096788
46	575964	183	1637.5478479033
46	595626	184	1627.8065300509
46	600391	185	1618.048486338
46	622281	186	1608.3062353749
46	627223	187	1598.5403975025
46	647931	188	1588.7839592537
46	651252	189	1579.0289962152
46	669909	190	1569.276539634
46	674676	191	1559.5121482015
46	691991	192	1549.7985283397
46	695353	193	1539.8772159582
46	714407	194	1529.9673034856
46	716836	195	1520.0628357548
46	736644	196	1510.1565057915
46	737431	197	1500.246279344
46	757431	198	1490.7541035647
46	758037	199	1481.626186654
46	777629	200	1472.4913947545
45	29	28	2414.8739556831
45	30	29	2411.9824938183
45	31	30	2407.2767486298
45	32	31	2402.3079262363
45	33	32	2395.9700331651
45	34	33	2388.2243426732
45	35	34	2379.1798498989
45	36	35	2369.4000369494
45	37	36	2359.6135473003
45	38	37	2349.8226352722
45	39	38	2340.4134316911
45	40	39	2334.4106986645
45	41	40	2338.1220065824
45	42	41	2348.0262513771
45	43	42	2357.2197601368
45	44	43	2367.7284599482
45	45	44	2379.2322233357
45	46	45	2389.9130072114
45	47	46	2399.2813543333
45	48	47	2408.1780252042
45	49	48	2416.4765241088
45	50	49	2423.885014496
45	51	50	2430.565966867
45	52	51	2432.1115182358
45	53	52	2433.9169262266
45	54	53	2435.9801415716
45	55	54	2437.9788138991
45	56	55	2438.959339434
45	57	56	2439.9207622564
45	58	57	2440.9310064185
45	59	58	2441.9422170511
45	60	59	2442.9441905798
45	61	60	2443.9285810051
45	62	61	2444.8972713586
45	63	62	2445.8565282413
45	64	63	2446.8058543681
45	65	64	2447.7515163438
45	66	65	2448.6909398547
45	67	66	2449.6223280227
45	68	67	2450.5540833102
45	69	68	2449.7516607902
45	70	69	2448.7320293566
45	71	70	2447.712682449
45	72	71	2446.696156089
45	73	72	2445.6805436962
45	74	73	2444.6666031781
45	76	74	2443.651387717
45	77	75	2442.6377618335
45	78	76	2441.6210391945
45	79	77	2440.6026414874
45	80	78	2439.6798390489
45	81	79	2438.7621909911
45	82	80	2437.9312684502
45	83	81	2433.0718497717
45	84	82	2423.0260501773
45	85	83	2410.1200629403
45	86	84	2396.3489590398
45	203	85	2382.4990709531
45	204	86	2368.6496851748
45	2052	87	2354.7712663461
45	2053	88	2340.9245436754
45	6759	89	2327.0450778542
45	6760	90	2313.1508276067
45	11694	91	2299.2411827567
45	11695	92	2285.3507600465
45	16483	93	2271.4372149316
45	16484	94	2257.5160926259
45	21521	95	2243.6425917146
45	21522	96	2230.1318703421
45	26375	97	2218.3224605416
45	26376	98	2208.6150612298
45	31210	99	2200.6071019641
45	31211	100	2194.0612707984
45	36113	101	2188.9314035497
45	36114	102	2185.0945515048
45	41145	103	2182.4694312089
45	41147	104	2180.8490830158
45	46207	105	2179.9591863247
45	46208	106	2179.5249295754
45	51187	107	2179.3344514298
45	51188	108	2179.2530314311
45	55952	109	2179.2189638468
45	55953	110	2179.2047789908
45	60648	111	2179.1989861645
45	60649	112	2179.1966280519
45	65610	113	2179.1956670198
45	65611	114	2179.1952848998
45	70428	115	2179.1951348963
45	70429	116	2179.1950788635
45	75463	117	2179.1950587181
45	75464	118	2179.1950566751
45	80452	119	2179.1950566751
45	80453	120	2179.1950566751
45	85653	121	2179.1950566751
45	85654	122	2179.1950566751
45	90744	123	2179.1950566751
45	90746	124	2179.1950557049
45	96036	125	2179.1950417542
45	96037	126	2179.1944887398
45	101663	127	2179.1828778961
45	101664	128	2179.0809939278
45	107396	129	2178.5800262614
45	107397	130	2177.3270634004
45	115322	131	2175.0869364645
45	115323	132	2171.8906133017
45	124116	133	2167.8120447125
45	124118	134	2162.9601573378
45	133536	135	2157.6268622532
45	133537	136	2151.8066605715
45	143209	137	2145.475652338
45	143210	138	2139.4760270689
45	153102	139	2133.0849872603
45	153103	140	2125.6327696727
45	163378	141	2116.845304592
45	163379	142	2107.3171253888
45	174183	143	2097.7895577806
45	174184	144	2088.261701475
45	185140	145	2078.73519599
45	185141	146	2069.2051115094
45	196319	147	2059.6858832935
45	196320	148	2050.1556309207
45	207950	149	2040.2595597195
45	207951	150	2030.2639702907
45	219608	151	2020.2742883468
45	219609	152	2010.2667624515
45	231348	153	2000.2681292453
45	231350	154	1990.2698931689
45	243520	155	1980.2815456238
45	243521	156	1970.2966725868
45	256520	157	1960.2810723986
45	256521	158	1950.2982488335
45	269967	159	1940.3097381917
45	270153	160	1930.5130644889
45	284168	161	1920.7715586559
45	286549	162	1911.0499281015
45	300380	163	1901.3086519631
45	309081	164	1891.5720933803
45	322835	165	1881.8425257038
45	338322	166	1872.1057299344
45	352370	167	1862.3721846511
45	367817	168	1852.6322162377
45	381000	169	1842.9031303739
45	397297	170	1833.0542894988
45	410071	171	1822.9588872168
45	426147	172	1812.8683016194
45	438206	173	1802.8499915407
45	454551	174	1792.9004807954
45	465900	175	1782.9573577516
45	483186	176	1773.0001509154
45	493773	177	1763.0536323113
45	511514	178	1753.1018349261
45	521381	179	1743.1539131027
45	539984	180	1733.1982188445
45	549033	181	1723.2509878885
45	568292	182	1713.2864393872
45	575964	183	1703.332421935
45	595626	184	1693.3924287142
45	600391	185	1683.4353685074
45	622281	186	1673.4944231453
45	627223	187	1663.5294098161
45	647931	188	1653.5739878165
45	651252	189	1643.6200711151
45	669909	190	1633.6687119904
45	674676	191	1623.7051746012
45	691991	192	1613.8931935271
45	695353	193	1604.0647966615
45	714407	194	1594.2476929424
45	716836	195	1584.4359829741
45	736644	196	1574.6224282131
45	737431	197	1564.80501346
45	757431	198	1554.5603874981
45	758037	199	1544.0079480105
45	777629	200	1533.4475606084

